# Generated by pormake.
# Topology can, (4)-cn, num edge types: 1
# Building blocks:
#     Node 0, Type 0, BuildingBlock: N393, # of connection points: 4
#     Node 1, Type 0, BuildingBlock: N393, # of connection points: 4
#     Node 2, Type 0, BuildingBlock: N393, # of connection points: 4
#     Node 3, Type 0, BuildingBlock: N393, # of connection points: 4
#     Node 4, Type 0, BuildingBlock: N393, # of connection points: 4
#     Node 5, Type 0, BuildingBlock: N393, # of connection points: 4
#     Node 6, Type 0, BuildingBlock: N393, # of connection points: 4
#     Node 7, Type 0, BuildingBlock: N393, # of connection points: 4
#     Node 8, Type 0, BuildingBlock: N393, # of connection points: 4
#     Node 9, Type 0, BuildingBlock: N393, # of connection points: 4
#     Node 10, Type 0, BuildingBlock: N393, # of connection points: 4
#     Node 11, Type 0, BuildingBlock: N393, # of connection points: 4
#     Edge 12, Type (0, 0), BuildingBlock: E158, # of connection points: 2
#     Edge 13, Type (0, 0), BuildingBlock: E158, # of connection points: 2
#     Edge 14, Type (0, 0), BuildingBlock: E158, # of connection points: 2
#     Edge 15, Type (0, 0), BuildingBlock: E158, # of connection points: 2
#     Edge 16, Type (0, 0), BuildingBlock: E158, # of connection points: 2
#     Edge 17, Type (0, 0), BuildingBlock: E158, # of connection points: 2
#     Edge 18, Type (0, 0), BuildingBlock: E158, # of connection points: 2
#     Edge 19, Type (0, 0), BuildingBlock: E158, # of connection points: 2
#     Edge 20, Type (0, 0), BuildingBlock: E158, # of connection points: 2
#     Edge 21, Type (0, 0), BuildingBlock: E158, # of connection points: 2
#     Edge 22, Type (0, 0), BuildingBlock: E158, # of connection points: 2
#     Edge 23, Type (0, 0), BuildingBlock: E158, # of connection points: 2
#     Edge 24, Type (0, 0), BuildingBlock: E158, # of connection points: 2
#     Edge 25, Type (0, 0), BuildingBlock: E158, # of connection points: 2
#     Edge 26, Type (0, 0), BuildingBlock: E158, # of connection points: 2
#     Edge 27, Type (0, 0), BuildingBlock: E158, # of connection points: 2
#     Edge 28, Type (0, 0), BuildingBlock: E158, # of connection points: 2
#     Edge 29, Type (0, 0), BuildingBlock: E158, # of connection points: 2
#     Edge 30, Type (0, 0), BuildingBlock: E158, # of connection points: 2
#     Edge 31, Type (0, 0), BuildingBlock: E158, # of connection points: 2
#     Edge 32, Type (0, 0), BuildingBlock: E158, # of connection points: 2
#     Edge 33, Type (0, 0), BuildingBlock: E158, # of connection points: 2
#     Edge 34, Type (0, 0), BuildingBlock: E158, # of connection points: 2
#     Edge 35, Type (0, 0), BuildingBlock: E158, # of connection points: 2
# Relax obj value: 0.079
# Max RMSD: 0.092
# Mean RMSD: 0.092
data_can+N393+E158
_symmetry_space_group_name_H-M    P1
_symmetry_Int_Tables_number       1
_symmetry_cell_setting            triclinic
loop_
_symmetry_equiv_pos_as_xyz
'x, y, z'
_cell_length_a     44.062
_cell_length_b     44.061
_cell_length_c     20.796
_cell_angle_alpha  89.999
_cell_angle_beta   90.001
_cell_angle_gamma  119.999
loop_
_atom_site_label
_atom_site_type_symbol
_atom_site_fract_x
_atom_site_fract_y
_atom_site_fract_z
_atom_type_partial_charge
Ge0 Ge 0.28441 0.40348 0.22687 0.00000
Ge1 Ge 0.33659 0.38704 0.33285 0.00000
Ge2 Ge 0.34486 0.38223 0.16774 0.00000
Ge3 Ge 0.37284 0.46391 0.24107 0.00000
H4 H 0.23459 0.40446 0.17927 0.00000
H5 H 0.22081 0.37105 0.22282 0.00000
H6 H 0.31047 0.36574 0.43821 0.00000
H7 H 0.32609 0.34286 0.41367 0.00000
H8 H 0.37959 0.36723 0.09755 0.00000
H9 H 0.34339 0.33337 0.11041 0.00000
H10 H 0.40921 0.52302 0.20088 0.00000
H11 H 0.39955 0.52490 0.27269 0.00000
C12 C 0.23748 0.39599 0.22058 0.00000
C13 C 0.33087 0.36676 0.41841 0.00000
C14 C 0.35451 0.35810 0.10006 0.00000
C15 C 0.40746 0.51316 0.24331 0.00000
S16 S 0.28410 0.38052 0.31994 0.00000
S17 S 0.32137 0.46066 0.22475 0.00000
S18 S 0.29214 0.37518 0.14658 0.00000
S19 S 0.37762 0.44306 0.33611 0.00000
S20 S 0.34835 0.35820 0.25921 0.00000
S21 S 0.38541 0.43878 0.16017 0.00000
Ge22 Ge 0.88093 0.28443 0.72686 0.00000
Ge23 Ge 0.94954 0.33661 0.83285 0.00000
Ge24 Ge 0.96263 0.34488 0.66773 0.00000
Ge25 Ge 0.90892 0.37286 0.74107 0.00000
H26 H 0.83013 0.23461 0.67926 0.00000
H27 H 0.84976 0.22083 0.72282 0.00000
H28 H 0.94472 0.31049 0.93821 0.00000
H29 H 0.98323 0.32611 0.91366 0.00000
H30 H 0.01235 0.37961 0.59754 0.00000
H31 H 0.01002 0.34341 0.61040 0.00000
H32 H 0.88619 0.40923 0.70087 0.00000
H33 H 0.87465 0.39958 0.77269 0.00000
C34 C 0.84149 0.23750 0.72057 0.00000
C35 C 0.96411 0.33089 0.91840 0.00000
C36 C 0.99641 0.35453 0.60006 0.00000
C37 C 0.89430 0.40749 0.74331 0.00000
S38 S 0.90358 0.28412 0.81994 0.00000
S39 S 0.86070 0.32139 0.72474 0.00000
S40 S 0.91696 0.29216 0.64658 0.00000
S41 S 0.93456 0.37764 0.83610 0.00000
S42 S 0.99014 0.34837 0.75921 0.00000
S43 S 0.94663 0.38543 0.66016 0.00000
Ge44 Ge 0.88094 0.59653 0.77313 0.00000
Ge45 Ge 0.94955 0.61296 0.66714 0.00000
Ge46 Ge 0.96264 0.61777 0.83225 0.00000
Ge47 Ge 0.90894 0.53609 0.75892 0.00000
H48 H 0.83014 0.59555 0.82072 0.00000
H49 H 0.84977 0.62895 0.77717 0.00000
H50 H 0.94473 0.63426 0.56178 0.00000
H51 H 0.98324 0.65715 0.58633 0.00000
H52 H 0.01237 0.63277 0.90245 0.00000
H53 H 0.01003 0.66663 0.88959 0.00000
H54 H 0.88621 0.47698 0.79912 0.00000
H55 H 0.87466 0.47510 0.72730 0.00000
C56 C 0.84150 0.60401 0.77942 0.00000
C57 C 0.96412 0.63324 0.58159 0.00000
C58 C 0.99642 0.64190 0.89993 0.00000
C59 C 0.89432 0.48684 0.75668 0.00000
S60 S 0.90359 0.61948 0.68005 0.00000
S61 S 0.86071 0.53934 0.77525 0.00000
S62 S 0.91697 0.62483 0.85341 0.00000
S63 S 0.93457 0.55694 0.66388 0.00000
S64 S 0.99015 0.64180 0.74078 0.00000
S65 S 0.94664 0.56123 0.83982 0.00000
Ge66 Ge 0.28443 0.88093 0.27314 0.00000
Ge67 Ge 0.33661 0.94954 0.16715 0.00000
Ge68 Ge 0.34488 0.96263 0.33227 0.00000
Ge69 Ge 0.37286 0.90892 0.25894 0.00000
H70 H 0.23461 0.83014 0.32074 0.00000
H71 H 0.22083 0.84977 0.27718 0.00000
H72 H 0.31049 0.94473 0.06179 0.00000
H73 H 0.32611 0.98323 0.08634 0.00000
H74 H 0.37961 0.01236 0.40246 0.00000
H75 H 0.34342 0.01002 0.38960 0.00000
H76 H 0.40923 0.88619 0.29913 0.00000
H77 H 0.39957 0.87464 0.22732 0.00000
C78 C 0.23750 0.84150 0.27943 0.00000
C79 C 0.33090 0.96412 0.08160 0.00000
C80 C 0.35453 0.99641 0.39994 0.00000
C81 C 0.40748 0.89430 0.25669 0.00000
S82 S 0.28412 0.90358 0.18006 0.00000
S83 S 0.32138 0.86070 0.27526 0.00000
S84 S 0.29216 0.91697 0.35342 0.00000
S85 S 0.37764 0.93456 0.16390 0.00000
S86 S 0.34837 0.99014 0.24080 0.00000
S87 S 0.38543 0.94663 0.33984 0.00000
Ge88 Ge 0.71559 0.11907 0.77313 0.00000
Ge89 Ge 0.66341 0.05046 0.66715 0.00000
Ge90 Ge 0.65514 0.03737 0.83226 0.00000
Ge91 Ge 0.62716 0.09108 0.75893 0.00000
H92 H 0.76540 0.16987 0.82073 0.00000
H93 H 0.77918 0.15024 0.77718 0.00000
H94 H 0.68953 0.05528 0.56179 0.00000
H95 H 0.67391 0.01677 0.58634 0.00000
H96 H 0.62041 0.98765 0.90246 0.00000
H97 H 0.65660 0.98998 0.88960 0.00000
H98 H 0.59079 0.11381 0.79912 0.00000
H99 H 0.60044 0.12535 0.72731 0.00000
C100 C 0.76251 0.15851 0.77942 0.00000
C101 C 0.66912 0.03589 0.58160 0.00000
C102 C 0.64549 0.00359 0.89994 0.00000
C103 C 0.59253 0.10570 0.75669 0.00000
S104 S 0.71589 0.09642 0.68006 0.00000
S105 S 0.67863 0.13930 0.77525 0.00000
S106 S 0.70785 0.08304 0.85342 0.00000
S107 S 0.62238 0.06545 0.66389 0.00000
S108 S 0.65165 0.00986 0.74079 0.00000
S109 S 0.61459 0.05337 0.83983 0.00000
Ge110 Ge 0.59649 0.71556 0.27313 0.00000
Ge111 Ge 0.61292 0.66338 0.16715 0.00000
Ge112 Ge 0.61774 0.65511 0.33226 0.00000
Ge113 Ge 0.53606 0.62713 0.25893 0.00000
H114 H 0.59551 0.76538 0.32073 0.00000
H115 H 0.62892 0.77916 0.27718 0.00000
H116 H 0.63423 0.68950 0.06178 0.00000
H117 H 0.65711 0.67388 0.08633 0.00000
H118 H 0.63274 0.62038 0.40246 0.00000
H119 H 0.66660 0.65657 0.38959 0.00000
H120 H 0.47695 0.59076 0.29912 0.00000
H121 H 0.47507 0.60042 0.22730 0.00000
C122 C 0.60398 0.76249 0.27942 0.00000
C123 C 0.63321 0.66909 0.08159 0.00000
C124 C 0.64187 0.64545 0.39994 0.00000
C125 C 0.48681 0.59250 0.25668 0.00000
S126 S 0.61945 0.71587 0.18005 0.00000
S127 S 0.53931 0.67860 0.27525 0.00000
S128 S 0.62479 0.70782 0.35342 0.00000
S129 S 0.55691 0.62235 0.16389 0.00000
S130 S 0.64176 0.65162 0.24079 0.00000
S131 S 0.56119 0.61456 0.33983 0.00000
Ge132 Ge 0.11907 0.40350 0.27313 0.00000
Ge133 Ge 0.05046 0.38707 0.16714 0.00000
Ge134 Ge 0.03737 0.38226 0.33226 0.00000
Ge135 Ge 0.09108 0.46393 0.25892 0.00000
H136 H 0.16986 0.40447 0.32073 0.00000
H137 H 0.15023 0.37106 0.27717 0.00000
H138 H 0.05527 0.36576 0.06178 0.00000
H139 H 0.01677 0.34288 0.08633 0.00000
H140 H 0.98764 0.36726 0.40245 0.00000
H141 H 0.98998 0.33340 0.38959 0.00000
H142 H 0.11381 0.52304 0.29912 0.00000
H143 H 0.12535 0.52493 0.22730 0.00000
C144 C 0.15850 0.39600 0.27942 0.00000
C145 C 0.03589 0.36678 0.08159 0.00000
C146 C 0.00359 0.35812 0.39993 0.00000
C147 C 0.10570 0.51318 0.25668 0.00000
S148 S 0.09642 0.38054 0.18005 0.00000
S149 S 0.13930 0.46068 0.27525 0.00000
S150 S 0.08303 0.37520 0.35342 0.00000
S151 S 0.06544 0.44309 0.16388 0.00000
S152 S 0.00986 0.35823 0.24078 0.00000
S153 S 0.05337 0.43880 0.33983 0.00000
Ge154 Ge 0.40349 0.28441 0.77313 0.00000
Ge155 Ge 0.38706 0.33659 0.66715 0.00000
Ge156 Ge 0.38224 0.34486 0.83226 0.00000
Ge157 Ge 0.46392 0.37284 0.75893 0.00000
H158 H 0.40447 0.23459 0.82073 0.00000
H159 H 0.37106 0.22082 0.77718 0.00000
H160 H 0.36575 0.31047 0.56179 0.00000
H161 H 0.34287 0.32609 0.58633 0.00000
H162 H 0.36724 0.37959 0.90246 0.00000
H163 H 0.33338 0.34340 0.88959 0.00000
H164 H 0.52303 0.40922 0.79913 0.00000
H165 H 0.52491 0.39956 0.72731 0.00000
C166 C 0.39600 0.23749 0.77942 0.00000
C167 C 0.36677 0.33088 0.58160 0.00000
C168 C 0.35811 0.35451 0.89994 0.00000
C169 C 0.51317 0.40747 0.75669 0.00000
S170 S 0.38053 0.28410 0.68006 0.00000
S171 S 0.46067 0.32137 0.77525 0.00000
S172 S 0.37519 0.29214 0.85342 0.00000
S173 S 0.44307 0.37762 0.66389 0.00000
S174 S 0.35822 0.34835 0.74079 0.00000
S175 S 0.43879 0.38541 0.83983 0.00000
Ge176 Ge 0.59651 0.88092 0.22687 0.00000
Ge177 Ge 0.61294 0.94954 0.33286 0.00000
Ge178 Ge 0.61775 0.96263 0.16774 0.00000
Ge179 Ge 0.53608 0.90892 0.24108 0.00000
H180 H 0.59553 0.83013 0.17928 0.00000
H181 H 0.62893 0.84975 0.22283 0.00000
H182 H 0.63424 0.94472 0.43822 0.00000
H183 H 0.65713 0.98322 0.41367 0.00000
H184 H 0.63276 0.01235 0.09755 0.00000
H185 H 0.66661 0.01002 0.11041 0.00000
H186 H 0.47697 0.88619 0.20088 0.00000
H187 H 0.47508 0.87465 0.27270 0.00000
C188 C 0.60399 0.84149 0.22058 0.00000
C189 C 0.63322 0.96411 0.41841 0.00000
C190 C 0.64189 0.99641 0.10007 0.00000
C191 C 0.48683 0.89431 0.24332 0.00000
S192 S 0.61946 0.90357 0.31995 0.00000
S193 S 0.53932 0.86070 0.22475 0.00000
S194 S 0.62481 0.91696 0.14659 0.00000
S195 S 0.55693 0.93456 0.33612 0.00000
S196 S 0.64178 0.99014 0.25922 0.00000
S197 S 0.56121 0.94663 0.16017 0.00000
Ge198 Ge 0.71557 0.59650 0.72687 0.00000
Ge199 Ge 0.66339 0.61293 0.83285 0.00000
Ge200 Ge 0.65511 0.61775 0.66774 0.00000
Ge201 Ge 0.62714 0.53607 0.74107 0.00000
H202 H 0.76539 0.59553 0.67927 0.00000
H203 H 0.77916 0.62893 0.72282 0.00000
H204 H 0.68951 0.63424 0.93821 0.00000
H205 H 0.67388 0.65712 0.91367 0.00000
H206 H 0.62038 0.63275 0.59754 0.00000
H207 H 0.65657 0.66661 0.61041 0.00000
H208 H 0.59077 0.47696 0.70088 0.00000
H209 H 0.60043 0.47507 0.77269 0.00000
C210 C 0.76249 0.60399 0.72058 0.00000
C211 C 0.66910 0.63322 0.91841 0.00000
C212 C 0.64546 0.64188 0.60006 0.00000
C213 C 0.59252 0.48682 0.74332 0.00000
S214 S 0.71587 0.61946 0.81994 0.00000
S215 S 0.67861 0.53932 0.72475 0.00000
S216 S 0.70783 0.62480 0.64658 0.00000
S217 S 0.62236 0.55692 0.83611 0.00000
S218 S 0.65162 0.64177 0.75921 0.00000
S219 S 0.61457 0.56120 0.66017 0.00000
Ge220 Ge 0.11908 0.71560 0.22686 0.00000
Ge221 Ge 0.05047 0.66342 0.33285 0.00000
Ge222 Ge 0.03738 0.65515 0.16774 0.00000
Ge223 Ge 0.09109 0.62717 0.24107 0.00000
H224 H 0.16988 0.76541 0.17927 0.00000
H225 H 0.15025 0.77919 0.22282 0.00000
H226 H 0.05529 0.68954 0.43821 0.00000
H227 H 0.01679 0.67392 0.41366 0.00000
H228 H 0.98766 0.62042 0.09754 0.00000
H229 H 0.98999 0.65662 0.11040 0.00000
H230 H 0.11382 0.59079 0.20087 0.00000
H231 H 0.12536 0.60045 0.27269 0.00000
C232 C 0.15852 0.76252 0.22058 0.00000
C233 C 0.03590 0.66913 0.41840 0.00000
C234 C 0.00360 0.64550 0.10006 0.00000
C235 C 0.10570 0.59254 0.24331 0.00000
S236 S 0.09644 0.71591 0.31994 0.00000
S237 S 0.13931 0.67864 0.22475 0.00000
S238 S 0.08305 0.70787 0.14658 0.00000
S239 S 0.06545 0.62239 0.33611 0.00000
S240 S 0.00987 0.65166 0.25921 0.00000
S241 S 0.05338 0.61460 0.16017 0.00000
Ge242 Ge 0.40350 0.11907 0.72687 0.00000
Ge243 Ge 0.38707 0.05046 0.83286 0.00000
Ge244 Ge 0.38226 0.03737 0.66775 0.00000
Ge245 Ge 0.46393 0.09107 0.74108 0.00000
H246 H 0.40448 0.16987 0.67927 0.00000
H247 H 0.37107 0.15024 0.72283 0.00000
H248 H 0.36576 0.05527 0.93822 0.00000
H249 H 0.34288 0.01677 0.91367 0.00000
H250 H 0.36726 0.98764 0.59755 0.00000
H251 H 0.33340 0.98998 0.61041 0.00000
H252 H 0.52304 0.11381 0.70088 0.00000
H253 H 0.52493 0.12535 0.77270 0.00000
C254 C 0.39601 0.15850 0.72058 0.00000
C255 C 0.36679 0.03589 0.91841 0.00000
C256 C 0.35812 0.00359 0.60007 0.00000
C257 C 0.51318 0.10569 0.74332 0.00000
S258 S 0.38054 0.09642 0.81995 0.00000
S259 S 0.46068 0.13930 0.72475 0.00000
S260 S 0.37520 0.08303 0.64659 0.00000
S261 S 0.44308 0.06544 0.83612 0.00000
S262 S 0.35823 0.00986 0.75922 0.00000
S263 S 0.43880 0.05337 0.66018 0.00000
H264 H 0.37603 0.32962 0.41912 0.00000
H265 H 0.40378 0.34864 0.46579 0.00000
N266 N 0.38103 0.33344 0.46082 0.00000
C267 C 0.34398 0.35983 0.45590 0.00000
C268 C 0.35581 0.34840 0.55116 0.00000
N269 N 0.36176 0.34691 0.48793 0.00000
N270 N 0.32787 0.36913 0.49752 0.00000
N271 N 0.33648 0.36257 0.55889 0.00000
H272 H 0.06375 0.38577 0.99012 0.00000
H273 H 0.05144 0.35617 0.94640 0.00000
N274 N 0.04773 0.37310 0.96066 0.00000
C275 C 0.00741 0.35647 0.05105 0.00000
C276 C 0.98407 0.34461 0.95586 0.00000
N277 N 0.01484 0.35842 0.98761 0.00000
N278 N 0.97346 0.34189 0.05833 0.00000
N279 N 0.95859 0.33343 0.99671 0.00000
H280 H 0.00591 0.59016 0.95250 0.00000
H281 H 0.04010 0.61532 0.97822 0.00000
N282 N 0.01715 0.60381 0.98591 0.00000
C283 C 0.98680 0.63479 0.95372 0.00000
C284 C 0.01026 0.64661 0.04881 0.00000
N285 N 0.00582 0.62746 0.99538 0.00000
N286 N 0.97993 0.65765 0.98005 0.00000
N287 N 0.99604 0.66586 0.04065 0.00000
H288 H 0.93769 0.60449 0.49130 0.00000
H289 H 0.94501 0.63137 0.44347 0.00000
N290 N 0.95258 0.61790 0.46090 0.00000
C291 C 0.99259 0.64437 0.55104 0.00000
C292 C 0.01588 0.65621 0.45581 0.00000
N293 N 0.98517 0.63874 0.48761 0.00000
N294 N 0.02643 0.66463 0.55824 0.00000
N295 N 0.04109 0.67293 0.49645 0.00000
H296 H 0.28906 0.96295 0.01213 0.00000
H297 H 0.29525 0.99610 0.98557 0.00000
N298 N 0.30113 0.97952 0.98311 0.00000
C299 C 0.35115 0.99012 0.04903 0.00000
C300 C 0.36283 0.01361 0.95396 0.00000
N301 N 0.33644 0.99405 0.99494 0.00000
N302 N 0.38522 0.00672 0.04203 0.00000
N303 N 0.39253 0.02262 0.98125 0.00000
H304 H 0.65193 0.94686 0.50113 0.00000
H305 H 0.68325 0.97404 0.53260 0.00000
N306 N 0.66008 0.96436 0.52938 0.00000
C307 C 0.64059 0.99148 0.44987 0.00000
C308 C 0.65245 0.01493 0.54496 0.00000
N309 N 0.65198 0.98920 0.50906 0.00000
N310 N 0.63447 0.01763 0.44900 0.00000
N311 N 0.64317 0.03320 0.51005 0.00000
H312 H 0.58699 0.60508 0.02774 0.00000
H313 H 0.58641 0.61747 0.96319 0.00000
N314 N 0.59741 0.61017 0.98947 0.00000
C315 C 0.64622 0.65666 0.04856 0.00000
C316 C 0.65784 0.64518 0.95317 0.00000
N317 N 0.63182 0.63621 0.99622 0.00000
N318 N 0.67970 0.67756 0.03824 0.00000
N319 N 0.68672 0.67064 0.97586 0.00000
H320 H 0.31939 0.01142 0.44797 0.00000
H321 H 0.30629 0.99868 0.51231 0.00000
N322 N 0.32516 0.01300 0.48933 0.00000
C323 C 0.35991 0.98728 0.45332 0.00000
C324 C 0.37142 0.01036 0.54873 0.00000
N325 N 0.35043 0.00365 0.49716 0.00000
N326 N 0.38554 0.98379 0.47687 0.00000
N327 N 0.39208 0.99786 0.53914 0.00000
H328 H 0.41675 0.39438 0.06106 0.00000
H329 H 0.41706 0.36451 0.03203 0.00000
N330 N 0.41255 0.38183 0.02528 0.00000
C331 C 0.35210 0.36650 0.04529 0.00000
C332 C 0.36368 0.35466 0.95017 0.00000
N333 N 0.37795 0.36797 0.00805 0.00000
N334 N 0.32301 0.35268 0.01204 0.00000
N335 N 0.33054 0.34421 0.95136 0.00000
H336 H 0.98103 0.39814 0.44175 0.00000
H337 H 0.94977 0.36910 0.46988 0.00000
N338 N 0.97204 0.38526 0.47700 0.00000
C339 C 0.01416 0.36622 0.45450 0.00000
C340 C 0.99073 0.35438 0.54962 0.00000
N341 N 0.99087 0.36907 0.49264 0.00000
N342 N 0.02773 0.35025 0.48634 0.00000
N343 N 0.01170 0.34183 0.54701 0.00000
H344 H 0.65195 0.06106 0.00762 0.00000
H345 H 0.62004 0.04052 0.04456 0.00000
N346 N 0.64128 0.04382 0.03608 0.00000
C347 C 0.64320 0.00777 0.94925 0.00000
C348 C 0.63134 0.98439 0.04440 0.00000
N349 N 0.63827 0.01347 0.01125 0.00000
N350 N 0.63927 0.97640 0.94412 0.00000
N351 N 0.63064 0.96117 0.00544 0.00000
H352 H 0.65714 0.61084 0.41928 0.00000
H353 H 0.68593 0.62901 0.46438 0.00000
N354 N 0.66286 0.61502 0.46066 0.00000
C355 C 0.62950 0.64537 0.45591 0.00000
C356 C 0.64132 0.63394 0.55118 0.00000
N357 N 0.64594 0.63098 0.48785 0.00000
N358 N 0.61547 0.65695 0.49765 0.00000
N359 N 0.62411 0.65035 0.55897 0.00000
H360 H 0.46443 0.49210 0.28731 0.00000
H361 H 0.49552 0.51434 0.24947 0.00000
N362 N 0.48101 0.51410 0.27952 0.00000
C363 C 0.43226 0.51964 0.23852 0.00000
C364 C 0.48084 0.56817 0.25611 0.00000
N365 N 0.46576 0.53297 0.25839 0.00000
N366 N 0.42687 0.54548 0.22416 0.00000
N367 N 0.45866 0.57665 0.23392 0.00000
H368 H 0.90909 0.48158 0.64850 0.00000
H369 H 0.93616 0.47246 0.63758 0.00000
N370 N 0.91528 0.46546 0.65524 0.00000
C371 C 0.91716 0.48214 0.76739 0.00000
C372 C 0.91737 0.43371 0.74944 0.00000
N373 N 0.91701 0.46089 0.72035 0.00000
N374 N 0.91781 0.46881 0.82325 0.00000
N375 N 0.91896 0.43810 0.81108 0.00000
H376 H 0.47072 0.88926 0.34020 0.00000
H377 H 0.46194 0.91427 0.36756 0.00000
N378 N 0.45607 0.89760 0.33805 0.00000
C379 C 0.48296 0.91872 0.23316 0.00000
C380 C 0.43455 0.91893 0.25126 0.00000
N381 N 0.45796 0.91145 0.27786 0.00000
N382 N 0.47548 0.93042 0.18120 0.00000
N383 N 0.44474 0.93140 0.19405 0.00000
H384 H 0.51274 0.04712 0.65542 0.00000
H385 H 0.54924 0.07020 0.63817 0.00000
N386 N 0.53481 0.05613 0.66852 0.00000
C387 C 0.51779 0.08525 0.74832 0.00000
C388 C 0.56644 0.08546 0.76613 0.00000
N389 N 0.53971 0.07499 0.72412 0.00000
N390 N 0.53049 0.10157 0.80281 0.00000
N391 N 0.56238 0.10244 0.81292 0.00000
H392 H 0.13449 0.55386 0.31357 0.00000
H393 H 0.14666 0.57918 0.26132 0.00000
N394 N 0.13018 0.56851 0.29120 0.00000
C395 C 0.07872 0.51484 0.25544 0.00000
C396 C 0.07880 0.56337 0.23708 0.00000
N397 N 0.09791 0.55003 0.26203 0.00000
N398 N 0.04906 0.50672 0.22725 0.00000
N399 N 0.04981 0.53829 0.21395 0.00000
H400 H 0.53107 0.50783 0.75988 0.00000
H401 H 0.50325 0.48189 0.71946 0.00000
N402 N 0.51569 0.48513 0.75513 0.00000
C403 C 0.56800 0.48041 0.74070 0.00000
C404 C 0.51945 0.43185 0.75827 0.00000
N405 N 0.53326 0.46670 0.75073 0.00000
N406 N 0.57538 0.45510 0.74159 0.00000
N407 N 0.54371 0.42377 0.75112 0.00000
H408 H 0.23915 0.43981 0.15910 0.00000
H409 H 0.20439 0.41620 0.13367 0.00000
N410 N 0.21628 0.43095 0.16543 0.00000
C411 C 0.22640 0.40375 0.25863 0.00000
C412 C 0.17705 0.40355 0.25633 0.00000
N413 N 0.20683 0.41329 0.22315 0.00000
N414 N 0.20938 0.38855 0.31138 0.00000
N415 N 0.17715 0.38766 0.30854 0.00000
H416 H 0.84296 0.19472 0.70180 0.00000
H417 H 0.82430 0.16611 0.74706 0.00000
N418 N 0.82192 0.17874 0.71613 0.00000
C419 C 0.81943 0.22973 0.75395 0.00000
C420 C 0.77020 0.18045 0.75221 0.00000
N421 N 0.80482 0.19524 0.74027 0.00000
N422 N 0.79494 0.23602 0.77389 0.00000
N423 N 0.76346 0.20387 0.77433 0.00000
H424 H 0.76048 0.55943 0.66006 0.00000
H425 H 0.79513 0.58284 0.63397 0.00000
N426 N 0.78337 0.56835 0.66615 0.00000
C427 C 0.77362 0.59630 0.75857 0.00000
C428 C 0.82298 0.59652 0.75627 0.00000
N429 N 0.79305 0.58649 0.72336 0.00000
N430 N 0.79085 0.61195 0.81089 0.00000
N431 N 0.82308 0.61284 0.80802 0.00000
H432 H 0.15935 0.80273 0.18681 0.00000
H433 H 0.17606 0.83322 0.22863 0.00000
N434 N 0.17973 0.81940 0.20241 0.00000
C435 C 0.18044 0.77045 0.25518 0.00000
C436 C 0.22966 0.81974 0.25342 0.00000
N437 N 0.19566 0.80423 0.23593 0.00000
N438 N 0.20395 0.76530 0.28373 0.00000
N439 N 0.23536 0.79751 0.28396 0.00000
H440 H 0.64308 0.80254 0.31393 0.00000
H441 H 0.65705 0.83313 0.27232 0.00000
N442 N 0.63945 0.81925 0.29828 0.00000
C443 C 0.59001 0.77043 0.24476 0.00000
C444 C 0.59011 0.81974 0.24653 0.00000
N445 N 0.60849 0.80417 0.26429 0.00000
N446 N 0.56148 0.76536 0.21578 0.00000
N447 N 0.56230 0.79759 0.21557 0.00000
H448 H 0.34718 0.15547 0.77647 0.00000
H449 H 0.35561 0.18333 0.82272 0.00000
N450 N 0.35634 0.17847 0.78138 0.00000
C451 C 0.41030 0.18051 0.74816 0.00000
C452 C 0.41039 0.22981 0.74639 0.00000
N453 N 0.39060 0.19546 0.76066 0.00000
N454 N 0.44107 0.20460 0.72741 0.00000
N455 N 0.44119 0.23648 0.72820 0.00000
loop_
_geom_bond_atom_site_label_1
_geom_bond_atom_site_label_2
_geom_bond_distance
_geom_bond_site_symmetry_2
_ccdc_geom_bond_type
Ge0 C12 1.928 . S
Ge0 S16 2.181 . S
Ge0 S17 2.213 . S
Ge0 S18 2.210 . S
Ge1 C13 1.950 . S
Ge1 S16 2.200 . S
Ge1 S19 2.214 . S
Ge1 S20 2.211 . S
Ge2 C14 1.935 . S
Ge2 S18 2.228 . S
Ge2 S20 2.219 . S
Ge2 S21 2.230 . S
Ge3 C15 1.931 . S
Ge3 S17 2.226 . S
Ge3 S19 2.233 . S
Ge3 S21 2.231 . S
H4 C12 0.970 . S
H5 C12 0.971 . S
H6 C13 0.969 . S
H7 C13 0.970 . S
H8 C14 0.970 . S
H9 C14 0.969 . S
H10 C15 0.970 . S
H11 C15 0.971 . S
Ge22 C34 1.928 . S
Ge22 S38 2.181 . S
Ge22 S39 2.213 . S
Ge22 S40 2.210 . S
Ge23 C35 1.950 . S
Ge23 S38 2.200 . S
Ge23 S41 2.214 . S
Ge23 S42 2.211 . S
Ge24 C36 1.935 . S
Ge24 S40 2.228 . S
Ge24 S42 2.219 . S
Ge24 S43 2.230 . S
Ge25 C37 1.931 . S
Ge25 S39 2.226 . S
Ge25 S41 2.233 . S
Ge25 S43 2.231 . S
H26 C34 0.970 . S
H27 C34 0.971 . S
H28 C35 0.969 . S
H29 C35 0.970 . S
H30 C36 0.970 1_455 S
H31 C36 0.969 1_455 S
H32 C37 0.970 . S
H33 C37 0.971 . S
Ge44 C56 1.928 . S
Ge44 S60 2.181 . S
Ge44 S61 2.213 . S
Ge44 S62 2.210 . S
Ge45 C57 1.950 . S
Ge45 S60 2.200 . S
Ge45 S63 2.214 . S
Ge45 S64 2.211 . S
Ge46 C58 1.935 . S
Ge46 S62 2.228 . S
Ge46 S64 2.219 . S
Ge46 S65 2.230 . S
Ge47 C59 1.931 . S
Ge47 S61 2.226 . S
Ge47 S63 2.233 . S
Ge47 S65 2.231 . S
H48 C56 0.970 . S
H49 C56 0.971 . S
H50 C57 0.969 . S
H51 C57 0.970 . S
H52 C58 0.970 1_455 S
H53 C58 0.969 1_455 S
H54 C59 0.970 . S
H55 C59 0.971 . S
Ge66 C78 1.928 . S
Ge66 S82 2.181 . S
Ge66 S83 2.213 . S
Ge66 S84 2.210 . S
Ge67 C79 1.950 . S
Ge67 S82 2.200 . S
Ge67 S85 2.214 . S
Ge67 S86 2.211 . S
Ge68 C80 1.935 . S
Ge68 S84 2.228 . S
Ge68 S86 2.219 . S
Ge68 S87 2.230 . S
Ge69 C81 1.931 . S
Ge69 S83 2.226 . S
Ge69 S85 2.233 . S
Ge69 S87 2.231 . S
H70 C78 0.970 . S
H71 C78 0.971 . S
H72 C79 0.969 . S
H73 C79 0.970 . S
H74 C80 0.970 1_545 S
H75 C80 0.969 1_545 S
H76 C81 0.970 . S
H77 C81 0.971 . S
Ge88 C100 1.928 . S
Ge88 S104 2.181 . S
Ge88 S105 2.213 . S
Ge88 S106 2.210 . S
Ge89 C101 1.950 . S
Ge89 S104 2.200 . S
Ge89 S107 2.214 . S
Ge89 S108 2.211 . S
Ge90 C102 1.935 . S
Ge90 S106 2.228 . S
Ge90 S108 2.219 . S
Ge90 S109 2.230 . S
Ge91 C103 1.931 . S
Ge91 S105 2.226 . S
Ge91 S107 2.233 . S
Ge91 S109 2.231 . S
H92 C100 0.970 . S
H93 C100 0.971 . S
H94 C101 0.969 . S
H95 C101 0.970 . S
H96 C102 0.970 1_565 S
H97 C102 0.969 1_565 S
H98 C103 0.970 . S
H99 C103 0.971 . S
Ge110 C122 1.928 . S
Ge110 S126 2.181 . S
Ge110 S127 2.213 . S
Ge110 S128 2.210 . S
Ge111 C123 1.950 . S
Ge111 S126 2.200 . S
Ge111 S129 2.214 . S
Ge111 S130 2.211 . S
Ge112 C124 1.935 . S
Ge112 S128 2.228 . S
Ge112 S130 2.219 . S
Ge112 S131 2.230 . S
Ge113 C125 1.931 . S
Ge113 S127 2.226 . S
Ge113 S129 2.233 . S
Ge113 S131 2.231 . S
H114 C122 0.970 . S
H115 C122 0.971 . S
H116 C123 0.969 . S
H117 C123 0.970 . S
H118 C124 0.970 . S
H119 C124 0.969 . S
H120 C125 0.970 . S
H121 C125 0.971 . S
Ge132 C144 1.928 . S
Ge132 S148 2.181 . S
Ge132 S149 2.213 . S
Ge132 S150 2.210 . S
Ge133 C145 1.950 . S
Ge133 S148 2.200 . S
Ge133 S151 2.214 . S
Ge133 S152 2.211 . S
Ge134 C146 1.935 . S
Ge134 S150 2.228 . S
Ge134 S152 2.219 . S
Ge134 S153 2.230 . S
Ge135 C147 1.931 . S
Ge135 S149 2.226 . S
Ge135 S151 2.233 . S
Ge135 S153 2.231 . S
H136 C144 0.970 . S
H137 C144 0.971 . S
H138 C145 0.969 . S
H139 C145 0.970 . S
H140 C146 0.970 1_655 S
H141 C146 0.969 1_655 S
H142 C147 0.970 . S
H143 C147 0.971 . S
Ge154 C166 1.928 . S
Ge154 S170 2.181 . S
Ge154 S171 2.213 . S
Ge154 S172 2.210 . S
Ge155 C167 1.950 . S
Ge155 S170 2.200 . S
Ge155 S173 2.214 . S
Ge155 S174 2.211 . S
Ge156 C168 1.935 . S
Ge156 S172 2.228 . S
Ge156 S174 2.219 . S
Ge156 S175 2.230 . S
Ge157 C169 1.931 . S
Ge157 S171 2.226 . S
Ge157 S173 2.233 . S
Ge157 S175 2.231 . S
H158 C166 0.970 . S
H159 C166 0.971 . S
H160 C167 0.969 . S
H161 C167 0.970 . S
H162 C168 0.970 . S
H163 C168 0.969 . S
H164 C169 0.970 . S
H165 C169 0.971 . S
Ge176 C188 1.928 . S
Ge176 S192 2.181 . S
Ge176 S193 2.213 . S
Ge176 S194 2.210 . S
Ge177 C189 1.950 . S
Ge177 S192 2.200 . S
Ge177 S195 2.214 . S
Ge177 S196 2.211 . S
Ge178 C190 1.935 . S
Ge178 S194 2.228 . S
Ge178 S196 2.219 . S
Ge178 S197 2.230 . S
Ge179 C191 1.931 . S
Ge179 S193 2.226 . S
Ge179 S195 2.233 . S
Ge179 S197 2.231 . S
H180 C188 0.970 . S
H181 C188 0.971 . S
H182 C189 0.969 . S
H183 C189 0.970 . S
H184 C190 0.970 1_545 S
H185 C190 0.969 1_545 S
H186 C191 0.970 . S
H187 C191 0.971 . S
Ge198 C210 1.928 . S
Ge198 S214 2.181 . S
Ge198 S215 2.213 . S
Ge198 S216 2.210 . S
Ge199 C211 1.950 . S
Ge199 S214 2.200 . S
Ge199 S217 2.214 . S
Ge199 S218 2.211 . S
Ge200 C212 1.935 . S
Ge200 S216 2.228 . S
Ge200 S218 2.219 . S
Ge200 S219 2.230 . S
Ge201 C213 1.931 . S
Ge201 S215 2.226 . S
Ge201 S217 2.233 . S
Ge201 S219 2.231 . S
H202 C210 0.970 . S
H203 C210 0.971 . S
H204 C211 0.969 . S
H205 C211 0.970 . S
H206 C212 0.970 . S
H207 C212 0.969 . S
H208 C213 0.970 . S
H209 C213 0.971 . S
Ge220 C232 1.928 . S
Ge220 S236 2.181 . S
Ge220 S237 2.213 . S
Ge220 S238 2.210 . S
Ge221 C233 1.950 . S
Ge221 S236 2.200 . S
Ge221 S239 2.214 . S
Ge221 S240 2.211 . S
Ge222 C234 1.935 . S
Ge222 S238 2.228 . S
Ge222 S240 2.219 . S
Ge222 S241 2.230 . S
Ge223 C235 1.931 . S
Ge223 S237 2.226 . S
Ge223 S239 2.233 . S
Ge223 S241 2.231 . S
H224 C232 0.970 . S
H225 C232 0.971 . S
H226 C233 0.969 . S
H227 C233 0.970 . S
H228 C234 0.970 1_655 S
H229 C234 0.969 1_655 S
H230 C235 0.970 . S
H231 C235 0.971 . S
Ge242 C254 1.928 . S
Ge242 S258 2.181 . S
Ge242 S259 2.213 . S
Ge242 S260 2.210 . S
Ge243 C255 1.950 . S
Ge243 S258 2.200 . S
Ge243 S261 2.214 . S
Ge243 S262 2.211 . S
Ge244 C256 1.935 . S
Ge244 S260 2.228 . S
Ge244 S262 2.219 . S
Ge244 S263 2.230 . S
Ge245 C257 1.931 . S
Ge245 S259 2.226 . S
Ge245 S261 2.233 . S
Ge245 S263 2.231 . S
H246 C254 0.970 . S
H247 C254 0.971 . S
H248 C255 0.969 . S
H249 C255 0.970 . S
H250 C256 0.970 1_565 S
H251 C256 0.969 1_565 S
H252 C257 0.970 . S
H253 C257 0.971 . S
H264 N266 0.890 . S
H265 N266 0.890 . S
N266 N269 1.377 . S
C267 N269 1.352 . A
C267 N270 1.308 . A
C268 N269 1.349 . A
C268 N271 1.293 . A
N270 N271 1.402 . A
H272 N274 0.890 . S
H273 N274 0.890 . S
N274 N277 1.377 . S
C275 N277 1.352 1_554 A
C275 N278 1.308 1_455 A
C276 N277 1.349 1_655 A
C276 N279 1.293 . A
N278 N279 1.402 1_554 A
H280 N282 0.890 . S
H281 N282 0.890 . S
N282 N285 1.377 . S
C283 N285 1.352 1_655 A
C283 N286 1.308 . A
C284 N285 1.349 1_554 A
C284 N287 1.293 1_455 A
N286 N287 1.402 1_556 A
H288 N290 0.890 . S
H289 N290 0.890 . S
N290 N293 1.377 . S
C291 N293 1.352 . A
C291 N294 1.308 1_655 A
C292 N293 1.349 1_455 A
C292 N295 1.293 . A
N294 N295 1.402 . A
H296 N298 0.890 1_554 S
H297 N298 0.890 . S
N298 N301 1.377 . S
C299 N301 1.352 1_554 A
C299 N302 1.308 1_565 A
C300 N301 1.349 1_545 A
C300 N303 1.293 . A
N302 N303 1.402 1_554 A
H304 N306 0.890 . S
H305 N306 0.890 . S
N306 N309 1.377 . S
C307 N309 1.352 . A
C307 N310 1.308 1_565 A
C308 N309 1.349 1_545 A
C308 N311 1.293 . A
N310 N311 1.402 . A
H312 N314 0.890 1_554 S
H313 N314 0.890 . S
N314 N317 1.377 . S
C315 N317 1.352 1_554 A
C315 N318 1.308 . A
C316 N317 1.349 . A
C316 N319 1.293 . A
N318 N319 1.402 1_554 A
H320 N322 0.890 . S
H321 N322 0.890 1_565 S
N322 N325 1.377 . S
C323 N325 1.352 1_565 A
C323 N326 1.308 . A
C324 N325 1.349 . A
C324 N327 1.293 1_545 A
N326 N327 1.402 . A
H328 N330 0.890 . S
H329 N330 0.890 . S
N330 N333 1.377 . S
C331 N333 1.352 . A
C331 N334 1.308 . A
C332 N333 1.349 1_556 A
C332 N335 1.293 . A
N334 N335 1.402 1_554 A
H336 N338 0.890 . S
H337 N338 0.890 . S
N338 N341 1.377 . S
C339 N341 1.352 1_455 A
C339 N342 1.308 . A
C340 N341 1.349 . A
C340 N343 1.293 1_655 A
N342 N343 1.402 . A
H344 N346 0.890 . S
H345 N346 0.890 . S
N346 N349 1.377 . S
C347 N349 1.352 1_556 A
C347 N350 1.308 1_545 A
C348 N349 1.349 1_565 A
C348 N351 1.293 . A
N350 N351 1.402 1_556 A
H352 N354 0.890 . S
H353 N354 0.890 . S
N354 N357 1.377 . S
C355 N357 1.352 . A
C355 N358 1.308 . A
C356 N357 1.349 . A
C356 N359 1.293 . A
N358 N359 1.402 . A
H360 N362 0.890 . S
H361 N362 0.890 . S
N362 N365 1.377 . S
C363 N365 1.352 . A
C363 N366 1.308 . A
C364 N365 1.349 . A
C364 N367 1.293 . A
N366 N367 1.402 . A
H368 N370 0.890 . S
H369 N370 0.890 . S
N370 N373 1.377 . S
C371 N373 1.352 . A
C371 N374 1.308 . A
C372 N373 1.349 . A
C372 N375 1.293 . A
N374 N375 1.402 . A
H376 N378 0.890 . S
H377 N378 0.890 . S
N378 N381 1.377 . S
C379 N381 1.352 . A
C379 N382 1.308 . A
C380 N381 1.349 . A
C380 N383 1.293 . A
N382 N383 1.402 . A
H384 N386 0.890 . S
H385 N386 0.890 . S
N386 N389 1.377 . S
C387 N389 1.352 . A
C387 N390 1.308 . A
C388 N389 1.349 . A
C388 N391 1.293 . A
N390 N391 1.402 . A
H392 N394 0.890 . S
H393 N394 0.890 . S
N394 N397 1.377 . S
C395 N397 1.352 . A
C395 N398 1.308 . A
C396 N397 1.349 . A
C396 N399 1.293 . A
N398 N399 1.402 . A
H400 N402 0.890 . S
H401 N402 0.890 . S
N402 N405 1.377 . S
C403 N405 1.352 . A
C403 N406 1.308 . A
C404 N405 1.349 . A
C404 N407 1.293 . A
N406 N407 1.402 . A
H408 N410 0.890 . S
H409 N410 0.890 . S
N410 N413 1.377 . S
C411 N413 1.352 . A
C411 N414 1.308 . A
C412 N413 1.349 . A
C412 N415 1.293 . A
N414 N415 1.402 . A
H416 N418 0.890 . S
H417 N418 0.890 . S
N418 N421 1.377 . S
C419 N421 1.352 . A
C419 N422 1.308 . A
C420 N421 1.349 . A
C420 N423 1.293 . A
N422 N423 1.402 . A
H424 N426 0.890 . S
H425 N426 0.890 . S
N426 N429 1.377 . S
C427 N429 1.352 . A
C427 N430 1.308 . A
C428 N429 1.349 . A
C428 N431 1.293 . A
N430 N431 1.402 . A
H432 N434 0.890 . S
H433 N434 0.890 . S
N434 N437 1.377 . S
C435 N437 1.352 . A
C435 N438 1.308 . A
C436 N437 1.349 . A
C436 N439 1.293 . A
N438 N439 1.402 . A
H440 N442 0.890 . S
H441 N442 0.890 . S
N442 N445 1.377 . S
C443 N445 1.352 . A
C443 N446 1.308 . A
C444 N445 1.349 . A
C444 N447 1.293 . A
N446 N447 1.402 . A
H448 N450 0.890 . S
H449 N450 0.890 . S
N450 N453 1.377 . S
C451 N453 1.352 . A
C451 N454 1.308 . A
C452 N453 1.349 . A
C452 N455 1.293 . A
N454 N455 1.402 . A
C267 C13 1.101 . S
C268 C167 1.266 . S
C275 C145 1.271 . S
C276 C35 1.102 . S
C283 C58 1.182 . S
C284 C234 1.100 . S
C291 C57 1.266 . S
C292 C233 1.098 . S
C299 C79 1.243 . S
C300 C255 1.170 . S
C307 C189 1.263 . S
C308 C101 1.138 . S
C315 C123 1.189 . S
C316 C211 1.144 . S
C323 C80 1.243 . S
C324 C256 1.182 . S
C331 C14 1.219 . S
C332 C168 1.072 . S
C339 C146 1.211 . S
C340 C36 1.078 . S
C347 C102 1.055 . S
C348 C190 1.261 . S
C355 C124 1.284 . S
C356 C212 1.061 . S
C363 C15 0.986 . S
C364 C125 0.968 . S
C371 C59 1.146 . S
C372 C37 1.100 . S
C379 C191 1.189 . S
C380 C81 1.148 . S
C387 C257 1.023 . S
C388 C103 1.063 . S
C395 C147 1.227 . S
C396 C235 1.245 . S
C403 C213 0.972 . S
C404 C169 0.966 . S
C411 C12 1.072 . S
C412 C144 0.859 . S
C419 C34 1.101 . S
C420 C100 1.021 . S
C427 C210 1.070 . S
C428 C56 0.859 . S
C435 C232 1.111 . S
C436 C78 1.000 . S
C443 C122 1.112 . S
C444 C188 0.999 . S
C451 C254 1.027 . S
C452 C166 1.097 . S
