# Generated by pormake.
# Topology crr, (4)-cn, num edge types: 1
# Building blocks:
#     Node 0, Type 0, BuildingBlock: N489, # of connection points: 6
#     Node 1, Type 0, BuildingBlock: N489, # of connection points: 6
#     Node 2, Type 0, BuildingBlock: N489, # of connection points: 6
#     Node 3, Type 0, BuildingBlock: N489, # of connection points: 6
#     Node 4, Type 0, BuildingBlock: N489, # of connection points: 6
#     Node 5, Type 0, BuildingBlock: N489, # of connection points: 6
#     Node 6, Type 0, BuildingBlock: N489, # of connection points: 6
#     Node 7, Type 0, BuildingBlock: N489, # of connection points: 6
#     Node 8, Type 0, BuildingBlock: N489, # of connection points: 6
#     Node 9, Type 0, BuildingBlock: N489, # of connection points: 6
#     Node 10, Type 0, BuildingBlock: N489, # of connection points: 6
#     Node 11, Type 0, BuildingBlock: N489, # of connection points: 6
#     Edge 12, Type (0, 0), BuildingBlock: E228, # of connection points: 2
#     Edge 13, Type (0, 0), BuildingBlock: E228, # of connection points: 2
#     Edge 14, Type (0, 0), BuildingBlock: E228, # of connection points: 2
#     Edge 15, Type (0, 0), BuildingBlock: E228, # of connection points: 2
#     Edge 16, Type (0, 0), BuildingBlock: E228, # of connection points: 2
#     Edge 17, Type (0, 0), BuildingBlock: E228, # of connection points: 2
#     Edge 18, Type (0, 0), BuildingBlock: E228, # of connection points: 2
#     Edge 19, Type (0, 0), BuildingBlock: E228, # of connection points: 2
#     Edge 20, Type (0, 0), BuildingBlock: E228, # of connection points: 2
#     Edge 21, Type (0, 0), BuildingBlock: E228, # of connection points: 2
#     Edge 22, Type (0, 0), BuildingBlock: E228, # of connection points: 2
#     Edge 23, Type (0, 0), BuildingBlock: E228, # of connection points: 2
#     Edge 24, Type (0, 0), BuildingBlock: E228, # of connection points: 2
#     Edge 25, Type (0, 0), BuildingBlock: E228, # of connection points: 2
#     Edge 26, Type (0, 0), BuildingBlock: E228, # of connection points: 2
#     Edge 27, Type (0, 0), BuildingBlock: E228, # of connection points: 2
#     Edge 28, Type (0, 0), BuildingBlock: E228, # of connection points: 2
#     Edge 29, Type (0, 0), BuildingBlock: E228, # of connection points: 2
#     Edge 30, Type (0, 0), BuildingBlock: E228, # of connection points: 2
#     Edge 31, Type (0, 0), BuildingBlock: E228, # of connection points: 2
#     Edge 32, Type (0, 0), BuildingBlock: E228, # of connection points: 2
#     Edge 33, Type (0, 0), BuildingBlock: E228, # of connection points: 2
#     Edge 34, Type (0, 0), BuildingBlock: E228, # of connection points: 2
#     Edge 35, Type (0, 0), BuildingBlock: E228, # of connection points: 2
# Relax obj value: 0.112
# Max RMSD: 0.255
# Mean RMSD: 0.241
data_crr+N489+E228
_symmetry_space_group_name_H-M    P1
_symmetry_Int_Tables_number       1
_symmetry_cell_setting            triclinic
loop_
_symmetry_equiv_pos_as_xyz
'x, y, z'
_cell_length_a     37.209
_cell_length_b     37.563
_cell_length_c     36.934
_cell_angle_alpha  89.267
_cell_angle_beta   88.831
_cell_angle_gamma  89.614
loop_
_atom_site_label
_atom_site_type_symbol
_atom_site_fract_x
_atom_site_fract_y
_atom_site_fract_z
_atom_type_partial_charge
C0 C 0.67000 0.87994 0.21272 0.00000
Cu1 Cu 0.70299 0.94062 0.32197 0.00000
C2 C 0.67699 0.88264 0.27624 0.00000
N3 N 0.71292 0.96131 0.37383 0.00000
C4 C 0.70124 0.92723 0.23989 0.00000
C5 C 0.74535 0.95218 0.38749 0.00000
H6 H 0.67744 0.89949 0.39281 0.00000
C7 C 0.66486 0.86507 0.24621 0.00000
C8 C 0.69341 0.98615 0.39035 0.00000
C9 C 0.68941 0.91058 0.20898 0.00000
C10 C 0.75804 0.96819 0.41819 0.00000
C11 C 0.73834 0.99460 0.43408 0.00000
C12 C 0.70516 0.00305 0.42115 0.00000
H13 H 0.65573 0.81879 0.30295 0.00000
N14 N 0.65539 0.97007 0.31220 0.00000
H15 H 0.74755 0.00705 0.45401 0.00000
H16 H 0.67071 0.99257 0.38085 0.00000
H17 H 0.78026 0.96080 0.42809 0.00000
H18 H 0.65208 0.80038 0.36311 0.00000
H19 H 0.82951 0.86631 0.37231 0.00000
H20 H 0.76177 0.88745 0.29134 0.00000
H21 H 0.80318 0.91227 0.40502 0.00000
H22 H 0.66021 0.86912 0.19209 0.00000
H23 H 0.71403 0.94895 0.23739 0.00000
H24 H 0.65308 0.84282 0.24894 0.00000
C25 C 0.74307 0.05712 0.28132 0.00000
C26 C 0.69807 0.01367 0.29192 0.00000
H27 H 0.57863 0.01980 0.27368 0.00000
C28 C 0.75776 0.99723 0.29641 0.00000
C29 C 0.66062 0.00174 0.29481 0.00000
H30 H 0.61849 0.93566 0.32825 0.00000
C31 C 0.70770 0.04808 0.28235 0.00000
C32 C 0.62221 0.95780 0.31607 0.00000
C33 C 0.76866 0.03150 0.28705 0.00000
C34 C 0.63201 0.02119 0.28141 0.00000
C35 C 0.59823 0.00763 0.28438 0.00000
C36 C 0.59269 0.97635 0.30291 0.00000
H37 H 0.63591 0.04379 0.27029 0.00000
N38 N 0.75324 0.91715 0.33425 0.00000
H39 H 0.74995 0.08103 0.27663 0.00000
H40 H 0.77550 0.97959 0.30120 0.00000
H41 H 0.68979 0.06522 0.27653 0.00000
N42 N 0.69525 0.91371 0.27276 0.00000
C43 C 0.81061 0.88006 0.36227 0.00000
C44 C 0.76517 0.92425 0.36789 0.00000
N45 N 0.72337 0.98840 0.29881 0.00000
C46 C 0.77006 0.89244 0.31488 0.00000
C47 C 0.67175 0.86922 0.31348 0.00000
C48 C 0.79444 0.90631 0.38192 0.00000
C49 C 0.65769 0.82435 0.35707 0.00000
C50 C 0.67326 0.88286 0.37423 0.00000
C51 C 0.79946 0.87364 0.32794 0.00000
C52 C 0.66091 0.83487 0.32175 0.00000
C53 C 0.66256 0.84857 0.38380 0.00000
N54 N 0.67778 0.89306 0.33997 0.00000
C55 C 0.88130 0.21814 0.66182 0.00000
Cu56 Cu 0.94139 0.32673 0.69456 0.00000
C57 C 0.88344 0.28070 0.66877 0.00000
N58 N 0.96177 0.37811 0.70437 0.00000
C59 C 0.92856 0.24581 0.69297 0.00000
C60 C 0.95218 0.39169 0.73709 0.00000
H61 H 0.89950 0.39557 0.66899 0.00000
C62 C 0.86605 0.25081 0.65669 0.00000
C63 C 0.98686 0.39453 0.68455 0.00000
C64 C 0.91210 0.21507 0.68119 0.00000
C65 C 0.96799 0.42222 0.74973 0.00000
C66 C 0.99468 0.43805 0.72971 0.00000
C67 C 0.00358 0.42517 0.69625 0.00000
H68 H 0.81895 0.30586 0.64771 0.00000
N69 N 0.97158 0.31712 0.64644 0.00000
H70 H 0.00701 0.45791 0.73889 0.00000
H71 H 0.99360 0.38509 0.66165 0.00000
H72 H 0.96027 0.43205 0.77215 0.00000
H73 H 0.79990 0.36471 0.64408 0.00000
H74 H 0.86495 0.37627 0.82241 0.00000
H75 H 0.88749 0.29636 0.75414 0.00000
H76 H 0.91129 0.40886 0.79557 0.00000
H77 H 0.87062 0.19761 0.65205 0.00000
H78 H 0.95040 0.24377 0.70572 0.00000
H79 H 0.84367 0.25307 0.64496 0.00000
C80 C 0.05900 0.28878 0.73428 0.00000
C81 C 0.01542 0.29818 0.68919 0.00000
H82 H 0.02272 0.27929 0.56885 0.00000
C83 C 0.99830 0.30289 0.74942 0.00000
C84 C 0.00365 0.30053 0.65153 0.00000
H85 H 0.93702 0.33208 0.60945 0.00000
C86 C 0.05015 0.28936 0.69869 0.00000
C87 C 0.95943 0.32046 0.61308 0.00000
C88 C 0.03288 0.29428 0.76020 0.00000
C89 C 0.02362 0.28738 0.62261 0.00000
C90 C 0.01018 0.28980 0.58865 0.00000
C91 C 0.97850 0.30752 0.58325 0.00000
H92 H 0.04650 0.27680 0.62642 0.00000
N93 N 0.91719 0.33891 0.74531 0.00000
H94 H 0.08311 0.28457 0.74107 0.00000
H95 H 0.98031 0.30750 0.76739 0.00000
H96 H 0.06764 0.28372 0.68055 0.00000
N97 N 0.91469 0.27788 0.68698 0.00000
C98 C 0.87906 0.36643 0.80330 0.00000
C99 C 0.92398 0.37219 0.75724 0.00000
N100 N 0.98964 0.30482 0.71482 0.00000
C101 C 0.89227 0.31965 0.76242 0.00000
C102 C 0.86964 0.31707 0.66353 0.00000
C103 C 0.90552 0.38598 0.78682 0.00000
C104 C 0.82411 0.35916 0.64959 0.00000
C105 C 0.88289 0.37702 0.66490 0.00000
C106 C 0.87295 0.33249 0.79215 0.00000
C107 C 0.83498 0.32461 0.65281 0.00000
C108 C 0.84830 0.38584 0.65432 0.00000
N109 N 0.89343 0.34352 0.66943 0.00000
C110 C 0.41355 0.01061 0.69818 0.00000
Cu111 Cu 0.30678 0.94363 0.67127 0.00000
C112 C 0.35050 0.00479 0.69302 0.00000
N113 N 0.25592 0.92021 0.66382 0.00000
C114 C 0.38769 0.96068 0.67008 0.00000
C115 C 0.24125 0.92717 0.63110 0.00000
H116 H 0.23556 0.98284 0.69663 0.00000
C117 C 0.37988 0.02424 0.70345 0.00000
C118 C 0.24098 0.89563 0.68521 0.00000
C119 C 0.41798 0.97923 0.68024 0.00000
C120 C 0.21112 0.90923 0.62005 0.00000
C121 C 0.19686 0.88310 0.64170 0.00000
C122 C 0.21081 0.87683 0.67515 0.00000
H123 H 0.32205 0.06842 0.71165 0.00000
N124 N 0.31876 0.91694 0.72043 0.00000
H125 H 0.17736 0.86935 0.63366 0.00000
H126 H 0.25119 0.89073 0.70811 0.00000
H127 H 0.20048 0.91510 0.59759 0.00000
H128 H 0.26177 0.08435 0.71595 0.00000
H129 H 0.25095 0.00953 0.54148 0.00000
H130 H 0.33368 0.99524 0.60850 0.00000
H131 H 0.22093 0.96347 0.57131 0.00000
H132 H 0.43382 0.02279 0.70687 0.00000
H133 H 0.39071 0.93848 0.65834 0.00000
H134 H 0.37660 0.04691 0.71415 0.00000
C135 C 0.35064 0.82712 0.63620 0.00000
C136 C 0.33953 0.87222 0.67935 0.00000
H137 H 0.36072 0.87266 0.79921 0.00000
C138 C 0.33301 0.88557 0.61861 0.00000
C139 C 0.33710 0.88582 0.71642 0.00000
H140 H 0.30240 0.95238 0.75608 0.00000
C141 C 0.35012 0.83781 0.67129 0.00000
C142 C 0.31523 0.93063 0.75321 0.00000
C143 C 0.34335 0.85122 0.60925 0.00000
C144 C 0.35182 0.86836 0.74585 0.00000
C145 C 0.34917 0.88340 0.77915 0.00000
C146 C 0.32972 0.91410 0.78352 0.00000
H147 H 0.36364 0.84609 0.74285 0.00000
N148 N 0.29248 0.96411 0.61984 0.00000
H149 H 0.35606 0.80311 0.63045 0.00000
H150 H 0.32715 0.90212 0.59996 0.00000
H151 H 0.35698 0.82181 0.69005 0.00000
N152 N 0.35472 0.97303 0.67626 0.00000
C153 C 0.26189 0.99715 0.56094 0.00000
C154 C 0.25912 0.95497 0.60915 0.00000
N155 N 0.33111 0.89594 0.65276 0.00000
C156 C 0.31033 0.98882 0.60108 0.00000
C157 C 0.31319 0.01682 0.69857 0.00000
C158 C 0.24382 0.97086 0.57915 0.00000
C159 C 0.26856 0.06040 0.71145 0.00000
C160 C 0.25344 0.00010 0.69943 0.00000
C161 C 0.29594 0.00560 0.57087 0.00000
C162 C 0.30391 0.05129 0.70783 0.00000
C163 C 0.24288 0.03480 0.70859 0.00000
N164 N 0.28769 0.99156 0.69452 0.00000
C165 C 0.66347 0.11691 0.78164 0.00000
Cu166 Cu 0.69919 0.05551 0.67201 0.00000
C167 C 0.67209 0.11397 0.71801 0.00000
N168 N 0.71042 0.03455 0.62004 0.00000
C169 C 0.69533 0.06909 0.75410 0.00000
C170 C 0.74323 0.04318 0.60588 0.00000
H171 H 0.67554 0.09686 0.60145 0.00000
C172 C 0.65921 0.13178 0.74819 0.00000
C173 C 0.69130 0.00997 0.60385 0.00000
C174 C 0.68272 0.08599 0.78516 0.00000
C175 C 0.75668 0.02692 0.57503 0.00000
C176 C 0.73735 0.00010 0.55947 0.00000
C177 C 0.70381 0.99283 0.57291 0.00000
H178 H 0.65163 0.17807 0.69147 0.00000
N179 N 0.65128 0.02678 0.68254 0.00000
H180 H 0.74706 0.98813 0.53943 0.00000
H181 H 0.66833 0.00391 0.61370 0.00000
H182 H 0.77918 0.03396 0.56478 0.00000
H183 H 0.64957 0.19641 0.63132 0.00000
H184 H 0.82716 0.12783 0.61966 0.00000
H185 H 0.75728 0.10787 0.70168 0.00000
H186 H 0.80159 0.08219 0.58743 0.00000
H187 H 0.65316 0.12792 0.80239 0.00000
H188 H 0.70802 0.04719 0.75646 0.00000
H189 H 0.64754 0.15420 0.74558 0.00000
C190 C 0.73803 0.93850 0.71232 0.00000
C191 C 0.69336 0.98259 0.70229 0.00000
H192 H 0.57342 0.97827 0.72229 0.00000
C193 C 0.75321 0.99814 0.69689 0.00000
C194 C 0.65600 0.99507 0.69992 0.00000
H195 H 0.61484 0.06170 0.66696 0.00000
C196 C 0.70268 0.94805 0.71178 0.00000
C197 C 0.61821 0.03953 0.67912 0.00000
C198 C 0.76381 0.96373 0.70616 0.00000
C199 C 0.62701 0.97607 0.71378 0.00000
C200 C 0.59332 0.99013 0.71128 0.00000
C201 C 0.58832 0.02145 0.69276 0.00000
H202 H 0.63058 0.95344 0.72489 0.00000
N203 N 0.74980 0.07820 0.65894 0.00000
H204 H 0.74475 0.91449 0.71696 0.00000
H205 H 0.77110 0.01551 0.69181 0.00000
H206 H 0.68459 0.93119 0.71790 0.00000
N207 N 0.69022 0.08264 0.72129 0.00000
C208 C 0.80797 0.11439 0.63000 0.00000
C209 C 0.76259 0.07086 0.62514 0.00000
N210 N 0.71888 0.00747 0.69497 0.00000
C211 C 0.76616 0.10271 0.67802 0.00000
C212 C 0.66784 0.12738 0.68082 0.00000
C213 C 0.79226 0.08834 0.61065 0.00000
C214 C 0.65498 0.17237 0.63734 0.00000
C215 C 0.67090 0.11360 0.62006 0.00000
C216 C 0.79594 0.12104 0.66449 0.00000
C217 C 0.65727 0.16188 0.67264 0.00000
C218 C 0.66051 0.14802 0.61057 0.00000
N219 N 0.67451 0.10340 0.65428 0.00000
C220 C 0.11627 0.78052 0.66372 0.00000
Cu221 Cu 0.05514 0.67147 0.69834 0.00000
C222 C 0.11396 0.71787 0.67160 0.00000
N223 N 0.03447 0.61995 0.70901 0.00000
C224 C 0.06793 0.75243 0.69550 0.00000
C225 C 0.04291 0.60603 0.74188 0.00000
H226 H 0.09804 0.60297 0.67358 0.00000
C227 C 0.13174 0.74792 0.65899 0.00000
C228 C 0.01011 0.60370 0.68955 0.00000
C229 C 0.08477 0.78333 0.68319 0.00000
C230 C 0.02669 0.57534 0.75505 0.00000
C231 C 0.00010 0.55968 0.73539 0.00000
C232 C 0.99301 0.57291 0.70177 0.00000
H233 H 0.17924 0.69304 0.65060 0.00000
N234 N 0.02666 0.68155 0.65022 0.00000
H235 H 0.98809 0.53970 0.74492 0.00000
H236 H 0.00418 0.61338 0.66653 0.00000
H237 H 0.03362 0.56528 0.77758 0.00000
H238 H 0.19849 0.63424 0.64775 0.00000
H239 H 0.12707 0.62067 0.82658 0.00000
H240 H 0.10687 0.70129 0.75723 0.00000
H241 H 0.08173 0.58829 0.80043 0.00000
H242 H 0.12727 0.80117 0.65359 0.00000
H243 H 0.04562 0.75430 0.70833 0.00000
H244 H 0.15455 0.74582 0.64719 0.00000
C245 C 0.93605 0.70881 0.73806 0.00000
C246 C 0.98126 0.69996 0.69290 0.00000
H247 H 0.97825 0.72014 0.57230 0.00000
C248 C 0.99624 0.69464 0.75313 0.00000
C249 C 0.99439 0.69804 0.65522 0.00000
H250 H 0.06257 0.66704 0.61328 0.00000
C251 C 0.94618 0.70863 0.70244 0.00000
C252 C 0.04001 0.67859 0.61685 0.00000
C253 C 0.96125 0.70308 0.76395 0.00000
C254 C 0.97543 0.71147 0.62619 0.00000
C255 C 0.99009 0.70943 0.59220 0.00000
C256 C 0.02199 0.69182 0.58691 0.00000
H257 H 0.95240 0.72197 0.62995 0.00000
N258 N 0.07754 0.65878 0.74916 0.00000
H259 H 0.91169 0.71291 0.74491 0.00000
H260 H 0.01359 0.68986 0.77109 0.00000
H261 H 0.92932 0.71444 0.68429 0.00000
N262 N 0.08205 0.72044 0.68992 0.00000
C263 C 0.11363 0.63069 0.80739 0.00000
C264 C 0.07036 0.62536 0.76162 0.00000
N265 N 0.00613 0.69309 0.71851 0.00000
C266 C 0.10182 0.67789 0.76588 0.00000
C267 C 0.12800 0.68157 0.66683 0.00000
C268 C 0.08778 0.61128 0.79132 0.00000
C269 C 0.17409 0.63970 0.65329 0.00000
C270 C 0.11477 0.62158 0.66914 0.00000
C271 C 0.12009 0.66477 0.79571 0.00000
C272 C 0.16305 0.67420 0.65605 0.00000
C273 C 0.14976 0.61293 0.65853 0.00000
N274 N 0.10402 0.65502 0.67323 0.00000
C275 C 0.01177 0.69581 0.41336 0.00000
Cu276 Cu 0.94463 0.66914 0.30616 0.00000
C277 C 0.00634 0.69031 0.34987 0.00000
N278 N 0.92129 0.66164 0.25505 0.00000
C279 C 0.96115 0.66843 0.38758 0.00000
C280 C 0.92795 0.62931 0.24023 0.00000
H281 H 0.98518 0.69319 0.23420 0.00000
C282 C 0.02589 0.70062 0.37937 0.00000
C283 C 0.89691 0.68277 0.24013 0.00000
C284 C 0.97979 0.67848 0.41800 0.00000
C285 C 0.90992 0.61838 0.20998 0.00000
C286 C 0.88398 0.63978 0.19576 0.00000
C287 C 0.87803 0.67283 0.20983 0.00000
H288 H 0.07109 0.70786 0.32086 0.00000
N289 N 0.91831 0.71779 0.31837 0.00000
H290 H 0.87014 0.63185 0.17619 0.00000
H291 H 0.89222 0.70541 0.25044 0.00000
H292 H 0.91561 0.59617 0.19923 0.00000
H293 H 0.08773 0.71148 0.26006 0.00000
H294 H 0.00970 0.54055 0.24957 0.00000
H295 H 0.99558 0.60718 0.33299 0.00000
H296 H 0.96388 0.57006 0.21957 0.00000
H297 H 0.02403 0.70440 0.43371 0.00000
H298 H 0.93854 0.65711 0.39074 0.00000
H299 H 0.04896 0.71091 0.37594 0.00000
C300 C 0.82611 0.63602 0.35098 0.00000
C301 C 0.87238 0.67796 0.33954 0.00000
H302 H 0.87443 0.79594 0.36087 0.00000
C303 C 0.88501 0.61808 0.33290 0.00000
C304 C 0.88668 0.71426 0.33701 0.00000
H305 H 0.95475 0.75240 0.30169 0.00000
C306 C 0.83743 0.67041 0.35039 0.00000
C307 C 0.93264 0.74987 0.31474 0.00000
C308 C 0.85011 0.60926 0.34351 0.00000
C309 C 0.86937 0.74346 0.35194 0.00000
C310 C 0.88507 0.77604 0.34918 0.00000
C311 C 0.91629 0.77992 0.32942 0.00000
H312 H 0.84673 0.74080 0.36396 0.00000
N313 N 0.96465 0.61830 0.29165 0.00000
H314 H 0.80174 0.63062 0.35657 0.00000
H315 H 0.90149 0.59956 0.32691 0.00000
H316 H 0.82149 0.68905 0.35740 0.00000
N317 N 0.97399 0.67414 0.35430 0.00000
C318 C 0.99740 0.55988 0.26065 0.00000
C319 C 0.95555 0.60762 0.25809 0.00000
N320 N 0.89600 0.65154 0.33093 0.00000
C321 C 0.98918 0.59977 0.30950 0.00000
C322 C 0.01887 0.69538 0.31222 0.00000
C323 C 0.97127 0.57787 0.24259 0.00000
C324 C 0.06343 0.70732 0.26703 0.00000
C325 C 0.00287 0.69592 0.25211 0.00000
C326 C 0.00580 0.56982 0.29492 0.00000
C327 C 0.05389 0.70411 0.30269 0.00000
C328 C 0.03776 0.70454 0.24129 0.00000
N329 N 0.99352 0.69143 0.28667 0.00000
C330 C 0.12157 0.22086 0.34042 0.00000
Cu331 Cu 0.05980 0.32990 0.30683 0.00000
C332 C 0.11852 0.28353 0.33280 0.00000
N333 N 0.03864 0.38142 0.29657 0.00000
C334 C 0.07376 0.24896 0.30922 0.00000
C335 C 0.04788 0.39548 0.26366 0.00000
H336 H 0.10088 0.39839 0.33143 0.00000
C337 C 0.13639 0.25347 0.34511 0.00000
C338 C 0.01343 0.39754 0.31634 0.00000
C339 C 0.09071 0.21805 0.32125 0.00000
C340 C 0.03158 0.42619 0.25077 0.00000
C341 C 0.00478 0.44172 0.27076 0.00000
C342 C 0.99623 0.42834 0.30441 0.00000
H343 H 0.18278 0.30841 0.35325 0.00000
N344 N 0.02999 0.31958 0.35521 0.00000
H345 H 0.99211 0.46170 0.26143 0.00000
H346 H 0.00694 0.38776 0.33938 0.00000
H347 H 0.03905 0.43634 0.22820 0.00000
H348 H 0.20104 0.36723 0.35615 0.00000
H349 H 0.13488 0.38133 0.17804 0.00000
H350 H 0.11380 0.30042 0.24729 0.00000
H351 H 0.08822 0.41352 0.20478 0.00000
H352 H 0.13259 0.20019 0.35035 0.00000
H353 H 0.05187 0.24710 0.29660 0.00000
H354 H 0.15881 0.25557 0.35670 0.00000
C355 C 0.94249 0.29247 0.26814 0.00000
C356 C 0.98619 0.30124 0.31289 0.00000
H357 H 0.97979 0.28060 0.43347 0.00000
C358 C 0.00292 0.30682 0.25253 0.00000
C359 C 0.99812 0.30305 0.35046 0.00000
H360 H 0.06455 0.33402 0.39185 0.00000
C361 C 0.95152 0.29254 0.30367 0.00000
C362 C 0.04227 0.32245 0.38846 0.00000
C363 C 0.96840 0.29835 0.24202 0.00000
C364 C 0.97849 0.28947 0.37963 0.00000
C365 C 0.99207 0.29141 0.41349 0.00000
C366 C 0.02354 0.30907 0.41854 0.00000
H367 H 0.95573 0.27894 0.37606 0.00000
N368 N 0.08356 0.34283 0.25582 0.00000
H369 H 0.91839 0.28835 0.26152 0.00000
H370 H 0.02075 0.31171 0.23441 0.00000
H371 H 0.93420 0.28663 0.32196 0.00000
N372 N 0.08722 0.28096 0.31479 0.00000
C373 C 0.12100 0.37121 0.19734 0.00000
C374 C 0.07624 0.37628 0.24357 0.00000
N375 N 0.01173 0.30826 0.28706 0.00000
C376 C 0.10865 0.32383 0.23878 0.00000
C377 C 0.13185 0.31983 0.33758 0.00000
C378 C 0.09435 0.39051 0.21374 0.00000
C379 C 0.17688 0.36175 0.35082 0.00000
C380 C 0.11776 0.37980 0.33563 0.00000
C381 C 0.12764 0.33710 0.20882 0.00000
C382 C 0.16646 0.32723 0.34804 0.00000
C383 C 0.15229 0.38848 0.34594 0.00000
N384 N 0.10766 0.34635 0.33152 0.00000
C385 C 0.41814 0.98914 0.30218 0.00000
Cu386 Cu 0.31035 0.05675 0.33143 0.00000
C387 C 0.35493 0.99541 0.30845 0.00000
N388 N 0.25918 0.08051 0.33993 0.00000
C389 C 0.39134 0.03905 0.33112 0.00000
C390 C 0.24376 0.07342 0.37285 0.00000
H391 H 0.23993 0.01830 0.30695 0.00000
C392 C 0.38467 0.97581 0.29736 0.00000
C393 C 0.24462 0.10537 0.31899 0.00000
C394 C 0.42198 0.02034 0.32030 0.00000
C395 C 0.21327 0.09151 0.38455 0.00000
C396 C 0.19939 0.11791 0.36335 0.00000
C397 C 0.21410 0.12433 0.32970 0.00000
H398 H 0.32725 0.93216 0.28977 0.00000
N399 N 0.32336 0.08372 0.28228 0.00000
H400 H 0.17962 0.13176 0.37183 0.00000
H401 H 0.25535 0.11037 0.29595 0.00000
H402 H 0.20212 0.08555 0.40715 0.00000
H403 H 0.26715 0.91675 0.28637 0.00000
H404 H 0.25177 0.99030 0.46167 0.00000
H405 H 0.33604 0.00445 0.39335 0.00000
H406 H 0.22221 0.03683 0.43270 0.00000
H407 H 0.43869 0.97686 0.29304 0.00000
H408 H 0.39396 0.06114 0.34299 0.00000
H409 H 0.38176 0.95326 0.28653 0.00000
C410 C 0.35277 0.17263 0.36672 0.00000
C411 C 0.34292 0.12795 0.32337 0.00000
H412 H 0.36698 0.12826 0.20313 0.00000
C413 C 0.33502 0.11419 0.38414 0.00000
C414 C 0.34145 0.11466 0.28623 0.00000
H415 H 0.30804 0.04868 0.24660 0.00000
C416 C 0.35314 0.16222 0.33154 0.00000
C417 C 0.32070 0.07031 0.24944 0.00000
C418 C 0.34496 0.14838 0.39360 0.00000
C419 C 0.35679 0.13222 0.25668 0.00000
C420 C 0.35501 0.11746 0.22330 0.00000
C421 C 0.33582 0.08695 0.21901 0.00000
H422 H 0.36841 0.15438 0.25966 0.00000
N423 N 0.29494 0.03599 0.38295 0.00000
H424 H 0.35792 0.19655 0.37257 0.00000
H425 H 0.32881 0.09754 0.40276 0.00000
H426 H 0.36037 0.17830 0.31279 0.00000
N427 N 0.35858 0.02701 0.32540 0.00000
C428 C 0.26311 0.00274 0.44211 0.00000
C429 C 0.26127 0.04531 0.39428 0.00000
N430 N 0.33399 0.10410 0.34993 0.00000
C431 C 0.31247 0.01100 0.40122 0.00000
C432 C 0.31780 0.98373 0.30343 0.00000
C433 C 0.24532 0.02931 0.42442 0.00000
C434 C 0.27371 0.94060 0.29095 0.00000
C435 C 0.25797 0.00010 0.30371 0.00000
C436 C 0.29745 0.99410 0.43154 0.00000
C437 C 0.30893 0.94940 0.29405 0.00000
C438 C 0.24781 0.96638 0.29445 0.00000
N439 N 0.29207 0.00915 0.30811 0.00000
C440 C 0.30308 0.41689 0.99232 0.00000
Cu441 Cu 0.33086 0.30957 0.06054 0.00000
C442 C 0.30893 0.35425 0.99834 0.00000
N443 N 0.33879 0.25867 0.08444 0.00000
C444 C 0.33113 0.38999 0.04303 0.00000
C445 C 0.37147 0.24377 0.07724 0.00000
H446 H 0.30665 0.24007 0.02093 0.00000
C447 C 0.29829 0.38385 0.97854 0.00000
C448 C 0.31767 0.24376 0.10957 0.00000
C449 C 0.32075 0.42047 0.02414 0.00000
C450 C 0.38274 0.21345 0.09550 0.00000
C451 C 0.36134 0.19920 0.12220 0.00000
C452 C 0.32795 0.21340 0.12871 0.00000
H453 H 0.29097 0.32744 0.93377 0.00000
N454 N 0.28185 0.32170 0.08789 0.00000
H455 H 0.36951 0.17953 0.13620 0.00000
H456 H 0.29479 0.25414 0.11464 0.00000
H457 H 0.40518 0.20268 0.08945 0.00000
H458 H 0.28747 0.26807 0.91771 0.00000
H459 H 0.46056 0.25346 0.99303 0.00000
H460 H 0.39301 0.33617 0.00771 0.00000
H461 H 0.43117 0.22338 0.04009 0.00000
H462 H 0.29425 0.43730 0.97992 0.00000
H463 H 0.34268 0.39242 0.06555 0.00000
H464 H 0.28777 0.38115 0.95555 0.00000
C465 C 0.36481 0.35049 0.17880 0.00000
C466 C 0.32224 0.34090 0.13315 0.00000
H467 H 0.20301 0.36369 0.13321 0.00000
C468 C 0.38266 0.33376 0.11931 0.00000
C469 C 0.28551 0.33928 0.11949 0.00000
H470 H 0.24675 0.30664 0.05204 0.00000
C471 C 0.33002 0.35067 0.16809 0.00000
C472 C 0.24939 0.31894 0.07413 0.00000
C473 C 0.39171 0.34328 0.15418 0.00000
C474 C 0.25607 0.35400 0.13735 0.00000
C475 C 0.22309 0.35213 0.12221 0.00000
C476 C 0.21908 0.33346 0.09105 0.00000
H477 H 0.25883 0.36528 0.15997 0.00000
N478 N 0.38215 0.29499 0.03951 0.00000
H479 H 0.37038 0.35535 0.20318 0.00000
H480 H 0.40129 0.32797 0.10240 0.00000
H481 H 0.31126 0.35748 0.18444 0.00000
N482 N 0.32543 0.35763 0.03056 0.00000
C483 C 0.44108 0.26437 0.00569 0.00000
C484 C 0.39313 0.26163 0.04883 0.00000
N485 N 0.34881 0.33257 0.10892 0.00000
C486 C 0.40063 0.31282 0.01425 0.00000
C487 C 0.30391 0.31758 0.98621 0.00000
C488 C 0.42314 0.24629 0.03256 0.00000
C489 C 0.29179 0.27432 0.94204 0.00000
C490 C 0.30371 0.25812 0.00298 0.00000
C491 C 0.43084 0.29840 0.99707 0.00000
C492 C 0.29493 0.30913 0.95121 0.00000
C493 C 0.29485 0.24839 0.96811 0.00000
N494 N 0.30816 0.29183 0.01194 0.00000
C495 C 0.21484 0.66596 0.88333 0.00000
Cu496 Cu 0.32408 0.69858 0.94346 0.00000
C497 C 0.27798 0.67332 0.88506 0.00000
N498 N 0.37582 0.70850 0.96371 0.00000
C499 C 0.24246 0.69642 0.93122 0.00000
C500 C 0.38950 0.74086 0.95446 0.00000
H501 H 0.39386 0.67440 0.90023 0.00000
C502 C 0.24792 0.66134 0.86760 0.00000
C503 C 0.39233 0.68895 0.98852 0.00000
C504 C 0.21154 0.68471 0.91471 0.00000
C505 C 0.42020 0.75342 0.97032 0.00000
C506 C 0.43611 0.73365 0.99675 0.00000
C507 C 0.42315 0.70057 0.00529 0.00000
H508 H 0.30376 0.65339 0.81951 0.00000
N509 N 0.31436 0.65094 0.97318 0.00000
H510 H 0.45607 0.74274 0.00916 0.00000
H511 H 0.38283 0.66630 0.99503 0.00000
H512 H 0.43011 0.77561 0.96282 0.00000
H513 H 0.36328 0.65050 0.79975 0.00000
H514 H 0.37414 0.82533 0.86809 0.00000
H515 H 0.29354 0.75733 0.89039 0.00000
H516 H 0.40688 0.79884 0.91406 0.00000
H517 H 0.19420 0.65627 0.87260 0.00000
H518 H 0.24026 0.70875 0.95345 0.00000
H519 H 0.25035 0.65001 0.84484 0.00000
C520 C 0.28508 0.73629 0.06294 0.00000
C521 C 0.29491 0.69243 0.01822 0.00000
H522 H 0.27612 0.57391 0.02378 0.00000
C523 C 0.29958 0.75181 0.00190 0.00000
C524 C 0.29743 0.65553 0.00572 0.00000
H525 H 0.32974 0.61501 0.93762 0.00000
C526 C 0.28580 0.70139 0.05345 0.00000
C527 C 0.31789 0.61829 0.96037 0.00000
C528 C 0.29068 0.76204 0.03700 0.00000
C529 C 0.28414 0.62682 0.02549 0.00000
C530 C 0.28674 0.59357 0.01138 0.00000
C531 C 0.30481 0.58869 0.97921 0.00000
H532 H 0.27333 0.63027 0.04870 0.00000
N533 N 0.33637 0.74877 0.91980 0.00000
H534 H 0.28069 0.74272 0.08739 0.00000
H535 H 0.30428 0.76967 0.98403 0.00000
H536 H 0.28007 0.68336 0.07083 0.00000
N537 N 0.27493 0.69094 0.91686 0.00000
C538 C 0.36419 0.80634 0.88208 0.00000
C539 C 0.36990 0.76074 0.92655 0.00000
N540 N 0.30167 0.71789 0.99261 0.00000
C541 C 0.31700 0.76564 0.89514 0.00000
C542 C 0.31478 0.66861 0.87075 0.00000
C543 C 0.38384 0.79009 0.90831 0.00000
C544 C 0.35754 0.65566 0.82427 0.00000
C545 C 0.37523 0.67036 0.88360 0.00000
C546 C 0.32998 0.79514 0.87604 0.00000
C547 C 0.32260 0.65843 0.83558 0.00000
C548 C 0.38434 0.66033 0.84849 0.00000
N549 N 0.34134 0.67443 0.89459 0.00000
C550 C 0.78254 0.66235 0.11360 0.00000
Cu551 Cu 0.67343 0.69690 0.05267 0.00000
C552 C 0.71943 0.67075 0.11168 0.00000
N553 N 0.62173 0.70771 0.03216 0.00000
C554 C 0.75504 0.69338 0.06499 0.00000
C555 C 0.60816 0.74027 0.04065 0.00000
H556 H 0.60356 0.67375 0.09644 0.00000
C557 C 0.74944 0.65823 0.12943 0.00000
C558 C 0.60515 0.68849 0.00780 0.00000
C559 C 0.78591 0.68112 0.08178 0.00000
C560 C 0.57750 0.75337 0.02447 0.00000
C561 C 0.56154 0.73392 0.99851 0.00000
C562 C 0.57438 0.70065 0.99075 0.00000
H563 H 0.69357 0.65107 0.17769 0.00000
N564 N 0.68299 0.64917 0.02407 0.00000
H565 H 0.54161 0.74337 0.98588 0.00000
H566 H 0.61458 0.66570 0.00184 0.00000
H567 H 0.56768 0.77570 0.03145 0.00000
H568 H 0.63404 0.64910 0.19750 0.00000
H569 H 0.62380 0.82428 0.12503 0.00000
H570 H 0.70417 0.75502 0.10436 0.00000
H571 H 0.59098 0.79843 0.07967 0.00000
H572 H 0.80314 0.65230 0.12458 0.00000
H573 H 0.75729 0.70573 0.04246 0.00000
H574 H 0.74697 0.64689 0.15246 0.00000
C575 C 0.71259 0.73426 0.93230 0.00000
C576 C 0.70259 0.69045 0.97806 0.00000
H577 H 0.72097 0.57164 0.97530 0.00000
C578 C 0.69813 0.74987 0.99297 0.00000
C579 C 0.69993 0.65356 0.99142 0.00000
H580 H 0.66748 0.61341 0.06047 0.00000
C581 C 0.71174 0.69935 0.94262 0.00000
C582 C 0.67934 0.61654 0.03765 0.00000
C583 C 0.70706 0.76005 0.95764 0.00000
C584 C 0.71313 0.62468 0.97234 0.00000
C585 C 0.71041 0.59145 0.98723 0.00000
C586 C 0.69232 0.58678 0.01951 0.00000
H587 H 0.72395 0.62802 0.94905 0.00000
N588 N 0.66132 0.74723 0.07514 0.00000
H589 H 0.71700 0.74068 0.90770 0.00000
H590 H 0.69349 0.76777 0.01042 0.00000
H591 H 0.71741 0.68127 0.92567 0.00000
N592 N 0.72255 0.68839 0.07946 0.00000
C593 C 0.63369 0.80516 0.11149 0.00000
C594 C 0.62783 0.75976 0.06810 0.00000
N595 N 0.69592 0.71597 0.00307 0.00000
C596 C 0.68073 0.76373 0.09941 0.00000
C597 C 0.68261 0.66659 0.12609 0.00000
C598 C 0.61399 0.78930 0.08564 0.00000
C599 C 0.63980 0.65423 0.17286 0.00000
C600 C 0.62217 0.66937 0.11317 0.00000
C601 C 0.66786 0.79339 0.11780 0.00000
C602 C 0.67475 0.65646 0.16149 0.00000
C603 C 0.61302 0.65940 0.14852 0.00000
N604 N 0.65607 0.67291 0.10210 0.00000
C605 C 0.69546 0.41509 0.00950 0.00000
Cu606 Cu 0.66881 0.30839 0.94313 0.00000
C607 C 0.69016 0.35252 0.00460 0.00000
N608 N 0.66139 0.25771 0.92013 0.00000
C609 C 0.66780 0.38870 0.95918 0.00000
C610 C 0.62883 0.24290 0.92750 0.00000
H611 H 0.69349 0.23849 0.98410 0.00000
C612 C 0.70049 0.38193 0.02390 0.00000
C613 C 0.68273 0.24289 0.89534 0.00000
C614 C 0.67787 0.41899 0.97755 0.00000
C615 C 0.61787 0.21277 0.90974 0.00000
C616 C 0.63948 0.19861 0.88337 0.00000
C617 C 0.67277 0.21271 0.87672 0.00000
H618 H 0.70815 0.32515 0.06973 0.00000
N619 N 0.71781 0.32051 0.91572 0.00000
H620 H 0.63152 0.17908 0.86970 0.00000
H621 H 0.70553 0.25319 0.89016 0.00000
H622 H 0.59551 0.20205 0.91592 0.00000
H623 H 0.71210 0.26564 0.08688 0.00000
H624 H 0.53938 0.25238 0.01124 0.00000
H625 H 0.60627 0.33489 0.99528 0.00000
H626 H 0.56918 0.22250 0.96483 0.00000
H627 H 0.70407 0.43538 0.02156 0.00000
H628 H 0.65630 0.39135 0.93658 0.00000
H629 H 0.71095 0.37901 0.04698 0.00000
C630 C 0.63490 0.35035 0.82400 0.00000
C631 C 0.67740 0.34023 0.86997 0.00000
H632 H 0.79643 0.36247 0.86990 0.00000
C633 C 0.61700 0.33326 0.88375 0.00000
C634 C 0.71410 0.33833 0.88378 0.00000
H635 H 0.75292 0.30502 0.95197 0.00000
C636 C 0.66965 0.35030 0.83482 0.00000
C637 C 0.75025 0.31750 0.92964 0.00000
C638 C 0.60798 0.34308 0.84867 0.00000
C639 C 0.74347 0.35306 0.86575 0.00000
C640 C 0.77641 0.35093 0.88104 0.00000
C641 C 0.78049 0.33200 0.91256 0.00000
H642 H 0.74068 0.36451 0.84291 0.00000
N643 N 0.61759 0.29390 0.96426 0.00000
H644 H 0.62937 0.35542 0.79951 0.00000
H645 H 0.59837 0.32743 0.90070 0.00000
H646 H 0.68840 0.35714 0.81841 0.00000
N647 N 0.67374 0.35622 0.97226 0.00000
C648 C 0.55882 0.26329 0.99845 0.00000
C649 C 0.60692 0.26065 0.95552 0.00000
N650 N 0.65082 0.33184 0.89427 0.00000
C651 C 0.59887 0.31162 0.98914 0.00000
C652 C 0.69546 0.31573 0.01741 0.00000
C653 C 0.57699 0.24533 0.97197 0.00000
C654 C 0.70781 0.27209 0.06242 0.00000
C655 C 0.69622 0.25639 0.00173 0.00000
C656 C 0.56873 0.29722 0.00648 0.00000
C657 C 0.70440 0.30698 0.05260 0.00000
C658 C 0.70505 0.24636 0.03681 0.00000
N659 N 0.69152 0.29019 0.99214 0.00000
C660 C 0.69184 0.87564 0.14647 0.00000
C661 C 0.69343 0.84136 0.13331 0.00000
C662 C 0.67879 0.81344 0.15227 0.00000
C663 C 0.66359 0.82109 0.18571 0.00000
C664 C 0.66259 0.85501 0.19900 0.00000
C665 C 0.67677 0.88299 0.17936 0.00000
F666 F 0.70520 0.90227 0.12574 0.00000
F667 F 0.70780 0.83642 0.10046 0.00000
F668 F 0.64961 0.79478 0.20646 0.00000
F669 F 0.64765 0.86075 0.23200 0.00000
C670 C 0.83540 0.29489 0.83455 0.00000
C671 C 0.82281 0.29341 0.87001 0.00000
C672 C 0.80735 0.32231 0.88615 0.00000
C673 C 0.80619 0.35329 0.86567 0.00000
C674 C 0.81925 0.35488 0.83070 0.00000
C675 C 0.83411 0.32544 0.81451 0.00000
F676 F 0.84877 0.26506 0.81960 0.00000
F677 F 0.82418 0.26229 0.88758 0.00000
F678 F 0.79234 0.38317 0.88010 0.00000
F679 F 0.81764 0.38600 0.81216 0.00000
C680 C 0.30763 0.88054 0.84109 0.00000
C681 C 0.30542 0.84682 0.85638 0.00000
C682 C 0.31929 0.81780 0.83908 0.00000
C683 C 0.33435 0.82376 0.80509 0.00000
C684 C 0.33596 0.85715 0.78969 0.00000
C685 C 0.32256 0.88624 0.80766 0.00000
F686 F 0.29503 0.90829 0.86023 0.00000
F687 F 0.29125 0.84350 0.88961 0.00000
F688 F 0.34758 0.79630 0.78590 0.00000
F689 F 0.35073 0.86124 0.75626 0.00000
C690 C 0.86387 0.18378 0.70188 0.00000
C691 C 0.82866 0.17235 0.70121 0.00000
C692 C 0.81458 0.15835 0.67074 0.00000
C693 C 0.83691 0.15748 0.64045 0.00000
C694 C 0.87165 0.16942 0.64099 0.00000
C695 C 0.88574 0.18279 0.67199 0.00000
F696 F 0.87671 0.19571 0.73320 0.00000
F697 F 0.80921 0.17332 0.73182 0.00000
F698 F 0.82459 0.14507 0.60910 0.00000
F699 F 0.89206 0.16816 0.61043 0.00000
C700 C 0.13345 0.81198 0.70531 0.00000
C701 C 0.16885 0.82281 0.70629 0.00000
C702 C 0.18509 0.83935 0.67730 0.00000
C703 C 0.16475 0.84345 0.64666 0.00000
C704 C 0.12983 0.83214 0.64552 0.00000
C705 C 0.11355 0.81617 0.67510 0.00000
F706 F 0.11843 0.79740 0.73533 0.00000
F707 F 0.18630 0.81862 0.73717 0.00000
F708 F 0.17926 0.85853 0.61664 0.00000
F709 F 0.11142 0.83662 0.61470 0.00000
C710 C 0.83483 0.82092 0.35040 0.00000
C711 C 0.86628 0.80114 0.34919 0.00000
C712 C 0.88779 0.80051 0.31886 0.00000
C713 C 0.87579 0.81955 0.28921 0.00000
C714 C 0.84426 0.83866 0.29025 0.00000
C715 C 0.82321 0.83967 0.32114 0.00000
F716 F 0.81568 0.82185 0.38162 0.00000
F717 F 0.87634 0.78423 0.37923 0.00000
F718 F 0.89499 0.81931 0.25799 0.00000
F719 F 0.83380 0.85648 0.26029 0.00000
C720 C 0.16902 0.16178 0.29740 0.00000
C721 C 0.13356 0.17304 0.29815 0.00000
C722 C 0.11743 0.18499 0.32922 0.00000
C723 C 0.13795 0.18396 0.35994 0.00000
C724 C 0.17293 0.17220 0.35928 0.00000
C725 C 0.18909 0.16091 0.32772 0.00000
F726 F 0.18391 0.15194 0.26559 0.00000
F727 F 0.11595 0.17399 0.26716 0.00000
F728 F 0.12355 0.19428 0.39182 0.00000
F729 F 0.19150 0.17153 0.39026 0.00000
C730 C 0.33706 0.15653 0.14628 0.00000
C731 C 0.34087 0.12313 0.16195 0.00000
C732 C 0.32852 0.11603 0.19629 0.00000
C733 C 0.31330 0.14421 0.21485 0.00000
C734 C 0.31011 0.17749 0.19948 0.00000
C735 C 0.32199 0.18413 0.16467 0.00000
F736 F 0.34821 0.16141 0.11175 0.00000
F737 F 0.35507 0.09723 0.14189 0.00000
F738 F 0.30151 0.13954 0.24921 0.00000
F739 F 0.29528 0.20403 0.21911 0.00000
C740 C 0.18353 0.70316 0.86404 0.00000
C741 C 0.17317 0.70130 0.82838 0.00000
C742 C 0.15722 0.67164 0.81534 0.00000
C743 C 0.15325 0.64330 0.83923 0.00000
C744 C 0.16411 0.64497 0.87442 0.00000
C745 C 0.17948 0.67520 0.88743 0.00000
F746 F 0.19752 0.73373 0.87573 0.00000
F747 F 0.17718 0.73010 0.80738 0.00000
F748 F 0.13876 0.61277 0.82804 0.00000
F749 F 0.15980 0.61629 0.89638 0.00000
C750 C 0.84541 0.70360 0.15970 0.00000
C751 C 0.83520 0.70210 0.12397 0.00000
C752 C 0.81918 0.67264 0.11059 0.00000
C753 C 0.81497 0.64411 0.13420 0.00000
C754 C 0.82568 0.64542 0.16947 0.00000
C755 C 0.84112 0.67546 0.18282 0.00000
F756 F 0.85947 0.73399 0.17174 0.00000
F757 F 0.83944 0.73106 0.10325 0.00000
F758 F 0.80040 0.61375 0.12266 0.00000
F759 F 0.82113 0.61657 0.19115 0.00000
C760 C 0.67318 0.15677 0.86452 0.00000
C761 C 0.66876 0.12269 0.85173 0.00000
C762 C 0.67062 0.11568 0.81560 0.00000
C763 C 0.67580 0.14454 0.79261 0.00000
C764 C 0.67956 0.17843 0.80532 0.00000
C765 C 0.67835 0.18505 0.84175 0.00000
F766 F 0.67279 0.16171 0.90049 0.00000
F767 F 0.66472 0.09624 0.87574 0.00000
F768 F 0.67683 0.13989 0.75658 0.00000
F769 F 0.68425 0.20559 0.78149 0.00000
C770 C 0.19369 0.29608 0.14005 0.00000
C771 C 0.18105 0.29849 0.17540 0.00000
C772 C 0.16658 0.32934 0.18843 0.00000
C773 C 0.16649 0.35819 0.16490 0.00000
C774 C 0.17961 0.35593 0.13003 0.00000
C775 C 0.19345 0.32456 0.11700 0.00000
F776 F 0.20604 0.26449 0.12829 0.00000
F777 F 0.18134 0.26920 0.19604 0.00000
F778 F 0.15367 0.38980 0.17614 0.00000
F779 F 0.17907 0.38514 0.10842 0.00000
C780 C 0.49910 0.02829 0.32449 0.00000
C781 C 0.53483 0.01917 0.32879 0.00000
C782 C 0.54820 0.98723 0.31742 0.00000
C783 C 0.52392 0.96414 0.30271 0.00000
C784 C 0.48835 0.97299 0.29904 0.00000
C785 C 0.47536 0.00548 0.30992 0.00000
F786 F 0.48793 0.06083 0.33463 0.00000
F787 F 0.55662 0.04329 0.34244 0.00000
F788 F 0.53487 0.93173 0.29191 0.00000
F789 F 0.46586 0.94918 0.28474 0.00000
C790 C 0.99819 0.52084 0.66800 0.00000
C791 C 0.01617 0.48853 0.66671 0.00000
C792 C 0.01649 0.46589 0.69586 0.00000
C793 C 0.99990 0.47755 0.72693 0.00000
C794 C 0.98180 0.50987 0.72836 0.00000
C795 C 0.98106 0.53211 0.69864 0.00000
F796 F 0.99739 0.54120 0.63785 0.00000
F797 F 0.03153 0.47894 0.63545 0.00000
F798 F 0.99990 0.45717 0.75711 0.00000
F799 F 0.96555 0.51991 0.75960 0.00000
C800 C 0.48694 0.00905 0.71411 0.00000
C801 C 0.52367 0.01424 0.71460 0.00000
C802 C 0.54503 0.00756 0.68499 0.00000
C803 C 0.52820 0.99417 0.65515 0.00000
C804 C 0.49184 0.98844 0.65493 0.00000
C805 C 0.47053 0.99593 0.68464 0.00000
F806 F 0.46712 0.01774 0.74354 0.00000
F807 F 0.53764 0.02803 0.74415 0.00000
F808 F 0.54764 0.98590 0.62532 0.00000
F809 F 0.47700 0.97501 0.62506 0.00000
C810 C 0.71738 0.98055 0.46883 0.00000
C811 C 0.72068 0.96718 0.50366 0.00000
C812 C 0.70579 0.98429 0.53270 0.00000
C813 C 0.68851 0.01618 0.52555 0.00000
C814 C 0.68580 0.02972 0.49105 0.00000
C815 C 0.70027 0.01191 0.46197 0.00000
F816 F 0.73114 0.96159 0.44117 0.00000
F817 F 0.73703 0.93586 0.50810 0.00000
F818 F 0.67412 0.03512 0.55292 0.00000
F819 F 0.66885 0.06116 0.48582 0.00000
C820 C 0.00672 0.65505 0.48523 0.00000
C821 C 0.01868 0.65380 0.52042 0.00000
C822 C 0.01478 0.68222 0.54280 0.00000
C823 C 0.99990 0.71255 0.52801 0.00000
C824 C 0.98824 0.71395 0.49290 0.00000
C825 C 0.99166 0.68496 0.47087 0.00000
F826 F 0.00975 0.62561 0.46508 0.00000
F827 F 0.03230 0.62327 0.53283 0.00000
F828 F 0.99579 0.74200 0.54806 0.00000
F829 F 0.97382 0.74445 0.47990 0.00000
C830 C 0.31394 0.96660 0.49537 0.00000
C831 C 0.31722 0.98208 0.52888 0.00000
C832 C 0.30486 0.01571 0.53533 0.00000
C833 C 0.29019 0.03378 0.50632 0.00000
C834 C 0.28752 0.01860 0.47292 0.00000
C835 C 0.29940 0.98449 0.46695 0.00000
F836 F 0.32505 0.93276 0.49120 0.00000
F837 F 0.33091 0.96253 0.55562 0.00000
F838 F 0.27843 0.06744 0.51029 0.00000
F839 F 0.27321 0.03771 0.44555 0.00000
C840 C 0.99847 0.34908 0.48027 0.00000
C841 C 0.98531 0.34867 0.51555 0.00000
C842 C 0.98776 0.31896 0.53698 0.00000
C843 C 0.00281 0.28913 0.52115 0.00000
C844 C 0.01528 0.28940 0.48595 0.00000
C845 C 0.01332 0.31965 0.46488 0.00000
F846 F 0.99684 0.37966 0.46109 0.00000
F847 F 0.97198 0.37880 0.52900 0.00000
F848 F 0.00513 0.25852 0.54023 0.00000
F849 F 0.02943 0.25932 0.47190 0.00000
C850 C 0.01774 0.51400 0.27304 0.00000
C851 C 0.00657 0.47899 0.27501 0.00000
C852 C 0.98962 0.46558 0.30525 0.00000
C853 C 0.98547 0.48841 0.33406 0.00000
C854 C 0.99713 0.52296 0.33228 0.00000
C855 C 0.01350 0.53635 0.30146 0.00000
F856 F 0.03271 0.52611 0.24188 0.00000
F857 F 0.01082 0.45900 0.24573 0.00000
F858 F 0.97000 0.47679 0.36518 0.00000
F859 F 0.99258 0.54389 0.36143 0.00000
C860 C 0.33999 0.48606 0.98806 0.00000
C861 C 0.33965 0.52096 0.97573 0.00000
C862 C 0.31416 0.54464 0.98746 0.00000
C863 C 0.28813 0.53154 0.01114 0.00000
C864 C 0.28815 0.49675 0.02286 0.00000
C865 C 0.31434 0.47335 0.01143 0.00000
F866 F 0.36681 0.46447 0.97685 0.00000
F867 F 0.36621 0.53166 0.95359 0.00000
F868 F 0.26148 0.55301 0.02302 0.00000
F869 F 0.26181 0.48544 0.04576 0.00000
C870 C 0.48500 0.72710 0.01502 0.00000
C871 C 0.52047 0.72674 0.00313 0.00000
C872 C 0.53494 0.69811 0.98565 0.00000
C873 C 0.51271 0.66919 0.98171 0.00000
C874 C 0.47771 0.66936 0.99408 0.00000
C875 C 0.46324 0.69858 0.01100 0.00000
F876 F 0.47182 0.75675 0.03050 0.00000
F877 F 0.53981 0.75603 0.00723 0.00000
F878 F 0.52539 0.63958 0.96574 0.00000
F879 F 0.45741 0.64017 0.98972 0.00000
C880 C 0.66468 0.51941 0.02926 0.00000
C881 C 0.66245 0.48407 0.01963 0.00000
C882 C 0.68122 0.47109 0.99051 0.00000
C883 C 0.70138 0.49536 0.97056 0.00000
C884 C 0.70307 0.53055 0.97979 0.00000
C885 C 0.68463 0.54314 0.00956 0.00000
F886 F 0.64693 0.53021 0.05925 0.00000
F887 F 0.64309 0.46226 0.04081 0.00000
F888 F 0.71974 0.48478 0.94084 0.00000
F889 F 0.72299 0.55303 0.95905 0.00000
C890 C 0.51434 0.27328 0.01567 0.00000
C891 C 0.47914 0.27356 0.00441 0.00000
C892 C 0.46382 0.30348 0.98998 0.00000
C893 C 0.48488 0.33360 0.98851 0.00000
C894 C 0.51960 0.33344 0.00010 0.00000
C895 C 0.53495 0.30300 0.01408 0.00000
F896 F 0.52845 0.24254 0.02801 0.00000
F897 F 0.46097 0.24317 0.00596 0.00000
F898 F 0.47128 0.36439 0.97567 0.00000
F899 F 0.53873 0.36380 0.99844 0.00000
loop_
_geom_bond_atom_site_label_1
_geom_bond_atom_site_label_2
_geom_bond_distance
_geom_bond_site_symmetry_2
_ccdc_geom_bond_type
C0 C7 1.361 . A
C0 C9 1.367 . A
C0 H22 0.948 . S
Cu1 N3 2.117 . S
Cu1 N14 2.117 . S
Cu1 N38 2.117 . S
Cu1 N42 2.117 . S
Cu1 N45 2.117 . S
Cu1 N54 2.117 . S
C2 C7 1.383 . A
C2 N42 1.358 . A
C2 C47 1.468 . S
N3 C5 1.358 . A
N3 C8 1.325 . A
C4 C9 1.390 . A
C4 H23 0.950 . S
C4 N42 1.325 . A
C5 C10 1.383 . A
C5 C44 1.468 . S
H6 C50 0.950 . S
C7 H24 0.949 . S
C8 C12 1.390 1_565 A
C8 H16 0.950 . S
C10 C11 1.361 . A
C10 H17 0.949 . S
C11 C12 1.367 1_565 A
C11 H15 0.948 1_565 S
H13 C52 0.949 . S
N14 C29 1.358 1_565 A
N14 C32 1.325 . A
H18 C49 0.949 . S
H19 C43 0.948 . S
H20 C46 0.950 . S
H21 C48 0.949 . S
C25 C31 1.361 . A
C25 C33 1.367 . A
C25 H39 0.948 . S
C26 C29 1.468 . S
C26 C31 1.383 . A
C26 N45 1.358 1_545 A
H27 C35 0.948 . S
C28 C33 1.390 1_565 A
C28 H40 0.950 . S
C28 N45 1.325 . A
C29 C34 1.383 . A
H30 C32 0.950 . S
C31 H41 0.949 . S
C32 C36 1.390 . A
C34 C35 1.361 . A
C34 H37 0.949 . S
C35 C36 1.367 1_545 A
N38 C44 1.358 . A
N38 C46 1.325 . A
C43 C48 1.361 . A
C43 C51 1.367 . A
C44 C48 1.383 . A
C46 C51 1.390 . A
C47 C52 1.383 . A
C47 N54 1.358 . A
C49 C52 1.361 . A
C49 C53 1.367 . A
C50 C53 1.390 . A
C50 N54 1.325 . A
C55 C62 1.361 . A
C55 C64 1.367 . A
C55 H77 0.948 . S
Cu56 N58 2.117 . S
Cu56 N69 2.117 . S
Cu56 N93 2.117 . S
Cu56 N97 2.117 . S
Cu56 N100 2.117 . S
Cu56 N109 2.117 . S
C57 C62 1.383 . A
C57 N97 1.358 . A
C57 C102 1.468 . S
N58 C60 1.358 . A
N58 C63 1.325 . A
C59 C64 1.390 . A
C59 H78 0.950 . S
C59 N97 1.325 . A
C60 C65 1.383 . A
C60 C99 1.468 . S
H61 C105 0.950 . S
C62 H79 0.949 . S
C63 C67 1.390 1_655 A
C63 H71 0.950 . S
C65 C66 1.361 . A
C65 H72 0.949 . S
C66 C67 1.367 1_655 A
C66 H70 0.948 1_655 S
H68 C107 0.949 . S
N69 C84 1.358 1_655 A
N69 C87 1.325 . A
H73 C104 0.949 . S
H74 C98 0.948 . S
H75 C101 0.950 . S
H76 C103 0.949 . S
C80 C86 1.361 . A
C80 C88 1.367 . A
C80 H94 0.948 . S
C81 C84 1.468 . S
C81 C86 1.383 . A
C81 N100 1.358 1_455 A
H82 C90 0.948 . S
C83 C88 1.390 1_655 A
C83 H95 0.950 . S
C83 N100 1.325 . A
C84 C89 1.383 . A
H85 C87 0.950 . S
C86 H96 0.949 . S
C87 C91 1.390 . A
C89 C90 1.361 . A
C89 H92 0.949 . S
C90 C91 1.367 1_455 A
N93 C99 1.358 . A
N93 C101 1.325 . A
C98 C103 1.361 . A
C98 C106 1.367 . A
C99 C103 1.383 . A
C101 C106 1.390 . A
C102 C107 1.383 . A
C102 N109 1.358 . A
C104 C107 1.361 . A
C104 C108 1.367 . A
C105 C108 1.390 . A
C105 N109 1.325 . A
C110 C117 1.361 . A
C110 C119 1.367 1_545 A
C110 H132 0.948 . S
Cu111 N113 2.117 . S
Cu111 N124 2.117 . S
Cu111 N148 2.117 . S
Cu111 N152 2.117 . S
Cu111 N155 2.117 . S
Cu111 N164 2.117 . S
C112 C117 1.383 . A
C112 N152 1.358 1_545 A
C112 C157 1.468 . S
N113 C115 1.358 . A
N113 C118 1.325 . A
C114 C119 1.390 . A
C114 H133 0.950 . S
C114 N152 1.325 . A
C115 C120 1.383 . A
C115 C154 1.468 . S
H116 C160 0.940 1_565 S
C117 H134 0.949 . S
C118 C122 1.390 . A
C118 H126 0.950 . S
C120 C121 1.361 . A
C120 H127 0.949 . S
C121 C122 1.367 . A
C121 H125 0.948 . S
H123 C162 0.949 . S
N124 C139 1.358 . A
N124 C142 1.325 . A
H128 C159 0.949 . S
H129 C153 0.948 1_545 S
H130 C156 0.950 . S
H131 C158 0.949 . S
C135 C141 1.361 . A
C135 C143 1.367 . A
C135 H149 0.948 . S
C136 C139 1.468 . S
C136 C141 1.383 . A
C136 N155 1.358 . A
H137 C145 0.948 . S
C138 C143 1.390 . A
C138 H150 0.950 . S
C138 N155 1.325 . A
C139 C144 1.383 . A
H140 C142 0.950 . S
C141 H151 0.949 . S
C142 C146 1.390 . A
C144 C145 1.361 . A
C144 H147 0.949 . S
C145 C146 1.367 . A
N148 C154 1.358 . A
N148 C156 1.325 . A
C153 C158 1.361 . A
C153 C161 1.367 1_565 A
C154 C158 1.383 . A
C156 C161 1.390 1_565 A
C157 C162 1.383 . A
C157 N164 1.358 1_545 A
C159 C162 1.361 . A
C159 C163 1.367 . A
C160 C163 1.402 . A
C160 N164 1.322 1_545 A
C165 C172 1.361 . A
C165 C174 1.367 . A
C165 H187 0.948 . S
Cu166 N168 2.117 . S
Cu166 N179 2.117 . S
Cu166 N203 2.117 . S
Cu166 N207 2.117 . S
Cu166 N210 2.117 . S
Cu166 N219 2.117 . S
C167 C172 1.383 . A
C167 N207 1.358 . A
C167 C212 1.468 . S
N168 C170 1.358 . A
N168 C173 1.325 . A
C169 C174 1.390 . A
C169 H188 0.950 . S
C169 N207 1.325 . A
C170 C175 1.383 . A
C170 C209 1.468 . S
H171 C215 0.950 . S
C172 H189 0.949 . S
C173 C177 1.390 1_545 A
C173 H181 0.950 . S
C175 C176 1.380 . A
C175 H182 0.949 . S
C176 C177 1.362 1_545 A
C176 H180 0.936 1_545 S
H178 C217 0.949 . S
N179 C194 1.358 1_545 A
N179 C197 1.325 . A
H183 C214 0.949 . S
H184 C208 0.948 . S
H185 C211 0.950 . S
H186 C213 0.949 . S
C190 C196 1.361 . A
C190 C198 1.367 . A
C190 H204 0.948 . S
C191 C194 1.468 . S
C191 C196 1.383 . A
C191 N210 1.358 1_565 A
H192 C200 0.948 . S
C193 C198 1.390 . A
C193 H205 0.950 1_565 S
C193 N210 1.325 1_565 A
C194 C199 1.383 . A
H195 C197 0.950 . S
C196 H206 0.949 . S
C197 C201 1.390 . A
C199 C200 1.361 . A
C199 H202 0.949 . S
C200 C201 1.367 1_565 A
N203 C209 1.358 . A
N203 C211 1.325 . A
C208 C213 1.361 . A
C208 C216 1.367 . A
C209 C213 1.383 . A
C211 C216 1.390 . A
C212 C217 1.383 . A
C212 N219 1.358 . A
C214 C217 1.361 . A
C214 C218 1.367 . A
C215 C218 1.390 . A
C215 N219 1.325 . A
C220 C227 1.361 . A
C220 C229 1.367 . A
C220 H242 0.948 . S
Cu221 N223 2.117 . S
Cu221 N234 2.117 . S
Cu221 N258 2.117 . S
Cu221 N262 2.117 . S
Cu221 N265 2.117 . S
Cu221 N274 2.117 . S
C222 C227 1.383 . A
C222 N262 1.358 . A
C222 C267 1.468 . S
N223 C225 1.358 . A
N223 C228 1.325 . A
C224 C229 1.390 . A
C224 H243 0.950 . S
C224 N262 1.325 . A
C225 C230 1.383 . A
C225 C264 1.468 . S
H226 C270 0.950 . S
C227 H244 0.949 . S
C228 C232 1.390 1_455 A
C228 H236 0.950 . S
C230 C231 1.379 . A
C230 H237 0.949 . S
C231 C232 1.362 1_455 A
C231 H235 0.937 1_455 S
H233 C272 0.949 . S
N234 C249 1.358 1_455 A
N234 C252 1.325 . A
H238 C269 0.949 . S
H239 C263 0.948 . S
H240 C266 0.950 . S
H241 C268 0.949 . S
C245 C251 1.361 . A
C245 C253 1.367 . A
C245 H259 0.948 . S
C246 C249 1.468 . S
C246 C251 1.383 . A
C246 N265 1.358 1_655 A
H247 C255 0.948 . S
C248 C253 1.390 . A
C248 H260 0.950 1_655 S
C248 N265 1.325 1_655 A
C249 C254 1.383 . A
H250 C252 0.950 . S
C251 H261 0.949 . S
C252 C256 1.390 . A
C254 C255 1.361 . A
C254 H257 0.949 . S
C255 C256 1.367 1_655 A
N258 C264 1.358 . A
N258 C266 1.325 . A
C263 C268 1.361 . A
C263 C271 1.367 . A
C264 C268 1.383 . A
C266 C271 1.390 . A
C267 C272 1.383 . A
C267 N274 1.358 . A
C269 C272 1.361 . A
C269 C273 1.367 . A
C270 C273 1.390 . A
C270 N274 1.325 . A
C275 C282 1.361 . A
C275 C284 1.367 1_455 A
C275 H297 0.948 . S
Cu276 N278 2.117 . S
Cu276 N289 2.117 . S
Cu276 N313 2.117 . S
Cu276 N317 2.117 . S
Cu276 N320 2.117 . S
Cu276 N329 2.117 . S
C277 C282 1.383 . A
C277 N317 1.358 1_455 A
C277 C322 1.468 . S
N278 C280 1.358 . A
N278 C283 1.325 . A
C279 C284 1.390 . A
C279 H298 0.950 . S
C279 N317 1.325 . A
C280 C285 1.383 . A
C280 C319 1.468 . S
H281 C325 0.950 1_655 S
C282 H299 0.949 . S
C283 C287 1.390 . A
C283 H291 0.950 . S
C285 C286 1.361 . A
C285 H292 0.949 . S
C286 C287 1.367 . A
C286 H290 0.948 . S
H288 C327 0.949 . S
N289 C304 1.358 . A
N289 C307 1.325 . A
H293 C324 0.949 . S
H294 C318 0.948 1_455 S
H295 C321 0.950 . S
H296 C323 0.949 . S
C300 C306 1.361 . A
C300 C308 1.367 . A
C300 H314 0.948 . S
C301 C304 1.468 . S
C301 C306 1.383 . A
C301 N320 1.358 . A
H302 C310 0.948 . S
C303 C308 1.390 . A
C303 H315 0.950 . S
C303 N320 1.325 . A
C304 C309 1.383 . A
H305 C307 0.950 . S
C306 H316 0.949 . S
C307 C311 1.390 . A
C309 C310 1.361 . A
C309 H312 0.949 . S
C310 C311 1.367 . A
N313 C319 1.358 . A
N313 C321 1.325 . A
C318 C323 1.361 . A
C318 C326 1.367 1_655 A
C319 C323 1.383 . A
C321 C326 1.390 1_655 A
C322 C327 1.383 . A
C322 N329 1.358 1_455 A
C324 C327 1.361 . A
C324 C328 1.367 . A
C325 C328 1.390 . A
C325 N329 1.325 1_455 A
C330 C337 1.361 . A
C330 C339 1.367 . A
C330 H352 0.948 . S
Cu331 N333 2.117 . S
Cu331 N344 2.117 . S
Cu331 N368 2.117 . S
Cu331 N372 2.117 . S
Cu331 N375 2.117 . S
Cu331 N384 2.117 . S
C332 C337 1.383 . A
C332 N372 1.358 . A
C332 C377 1.468 . S
N333 C335 1.358 . A
N333 C338 1.325 . A
C334 C339 1.390 . A
C334 H353 0.950 . S
C334 N372 1.325 . A
C335 C340 1.383 . A
C335 C374 1.468 . S
H336 C380 0.950 . S
C337 H354 0.949 . S
C338 C342 1.390 1_455 A
C338 H346 0.950 . S
C340 C341 1.361 . A
C340 H347 0.949 . S
C341 C342 1.367 1_455 A
C341 H345 0.948 1_455 S
H343 C382 0.949 . S
N344 C359 1.358 1_455 A
N344 C362 1.325 . A
H348 C379 0.949 . S
H349 C373 0.948 . S
H350 C376 0.950 . S
H351 C378 0.949 . S
C355 C361 1.361 . A
C355 C363 1.367 . A
C355 H369 0.948 . S
C356 C359 1.468 . S
C356 C361 1.383 . A
C356 N375 1.358 1_655 A
H357 C365 0.948 . S
C358 C363 1.390 1_455 A
C358 H370 0.950 . S
C358 N375 1.325 . A
C359 C364 1.383 . A
H360 C362 0.950 . S
C361 H371 0.949 . S
C362 C366 1.390 . A
C364 C365 1.361 . A
C364 H367 0.949 . S
C365 C366 1.367 1_655 A
N368 C374 1.358 . A
N368 C376 1.325 . A
C373 C378 1.361 . A
C373 C381 1.367 . A
C374 C378 1.383 . A
C376 C381 1.390 . A
C377 C382 1.383 . A
C377 N384 1.358 . A
C379 C382 1.361 . A
C379 C383 1.367 . A
C380 C383 1.390 . A
C380 N384 1.325 . A
C385 C392 1.361 . A
C385 C394 1.367 1_565 A
C385 H407 0.948 . S
Cu386 N388 2.117 . S
Cu386 N399 2.117 . S
Cu386 N423 2.117 . S
Cu386 N427 2.117 . S
Cu386 N430 2.117 . S
Cu386 N439 2.117 . S
C387 C392 1.383 . A
C387 N427 1.358 1_565 A
C387 C432 1.468 . S
N388 C390 1.358 . A
N388 C393 1.325 . A
C389 C394 1.390 . A
C389 H408 0.950 . S
C389 N427 1.325 . A
C390 C395 1.383 . A
C390 C429 1.468 . S
H391 C435 0.962 . S
C392 H409 0.949 . S
C393 C397 1.390 . A
C393 H401 0.950 . S
C395 C396 1.361 . A
C395 H402 0.949 . S
C396 C397 1.367 . A
C396 H400 0.948 . S
H398 C437 0.949 . S
N399 C414 1.358 . A
N399 C417 1.325 . A
H403 C434 0.949 . S
H404 C428 0.948 1_565 S
H405 C431 0.950 . S
H406 C433 0.949 . S
C410 C416 1.361 . A
C410 C418 1.367 . A
C410 H424 0.948 . S
C411 C414 1.468 . S
C411 C416 1.383 . A
C411 N430 1.358 . A
H412 C420 0.948 . S
C413 C418 1.390 . A
C413 H425 0.950 . S
C413 N430 1.325 . A
C414 C419 1.383 . A
H415 C417 0.950 . S
C416 H426 0.949 . S
C417 C421 1.390 . A
C419 C420 1.361 . A
C419 H422 0.949 . S
C420 C421 1.367 . A
N423 C429 1.358 . A
N423 C431 1.325 . A
C428 C433 1.361 . A
C428 C436 1.367 1_545 A
C429 C433 1.383 . A
C431 C436 1.390 1_545 A
C432 C437 1.383 . A
C432 N439 1.358 1_565 A
C434 C437 1.361 . A
C434 C438 1.367 . A
C435 C438 1.374 1_545 A
C435 N439 1.330 . A
C440 C447 1.361 . A
C440 C449 1.367 1_556 A
C440 H462 0.948 . S
Cu441 N443 2.117 . S
Cu441 N454 2.117 . S
Cu441 N478 2.117 . S
Cu441 N482 2.117 . S
Cu441 N485 2.117 . S
Cu441 N494 2.117 . S
C442 C447 1.383 . A
C442 N482 1.358 1_556 A
C442 C487 1.468 . S
N443 C445 1.358 . A
N443 C448 1.325 . A
C444 C449 1.390 . A
C444 H463 0.950 . S
C444 N482 1.325 . A
C445 C450 1.383 . A
C445 C484 1.468 . S
H446 C490 0.950 . S
C447 H464 0.949 . S
C448 C452 1.390 . A
C448 H456 0.950 . S
C450 C451 1.361 . A
C450 H457 0.949 . S
C451 C452 1.367 . A
C451 H455 0.948 . S
H453 C492 0.949 . S
N454 C469 1.358 . A
N454 C472 1.325 . A
H458 C489 0.949 . S
H459 C483 0.948 1_556 S
H460 C486 0.950 . S
H461 C488 0.949 . S
C465 C471 1.361 . A
C465 C473 1.367 . A
C465 H479 0.948 . S
C466 C469 1.468 . S
C466 C471 1.383 . A
C466 N485 1.358 . A
H467 C475 0.948 . S
C468 C473 1.390 . A
C468 H480 0.950 . S
C468 N485 1.325 . A
C469 C474 1.383 . A
H470 C472 0.950 . S
C471 H481 0.949 . S
C472 C476 1.390 . A
C474 C475 1.361 . A
C474 H477 0.949 . S
C475 C476 1.367 . A
N478 C484 1.358 . A
N478 C486 1.325 . A
C483 C488 1.361 . A
C483 C491 1.367 1_554 A
C484 C488 1.383 . A
C486 C491 1.390 1_554 A
C487 C492 1.383 . A
C487 N494 1.358 1_556 A
C489 C492 1.361 . A
C489 C493 1.367 . A
C490 C493 1.390 1_554 A
C490 N494 1.325 . A
C495 C502 1.361 . A
C495 C504 1.367 . A
C495 H517 0.948 . S
Cu496 N498 2.117 . S
Cu496 N509 2.117 . S
Cu496 N533 2.117 . S
Cu496 N537 2.117 . S
Cu496 N540 2.117 . S
Cu496 N549 2.117 . S
C497 C502 1.383 . A
C497 N537 1.358 . A
C497 C542 1.468 . S
N498 C500 1.358 . A
N498 C503 1.325 . A
C499 C504 1.390 . A
C499 H518 0.950 . S
C499 N537 1.325 . A
C500 C505 1.383 . A
C500 C539 1.468 . S
H501 C545 0.950 . S
C502 H519 0.949 . S
C503 C507 1.390 1_556 A
C503 H511 0.950 . S
C505 C506 1.361 . A
C505 H512 0.949 . S
C506 C507 1.367 1_556 A
C506 H510 0.948 1_556 S
H508 C547 0.949 . S
N509 C524 1.358 1_556 A
N509 C527 1.325 . A
H513 C544 0.949 . S
H514 C538 0.948 . S
H515 C541 0.950 . S
H516 C543 0.949 . S
C520 C526 1.361 . A
C520 C528 1.367 . A
C520 H534 0.948 . S
C521 C524 1.468 . S
C521 C526 1.383 . A
C521 N540 1.358 1_554 A
H522 C530 0.948 . S
C523 C528 1.390 . A
C523 H535 0.950 1_554 S
C523 N540 1.325 1_554 A
C524 C529 1.383 . A
H525 C527 0.950 . S
C526 H536 0.949 . S
C527 C531 1.390 . A
C529 C530 1.361 . A
C529 H532 0.949 . S
C530 C531 1.367 1_554 A
N533 C539 1.358 . A
N533 C541 1.325 . A
C538 C543 1.361 . A
C538 C546 1.367 . A
C539 C543 1.383 . A
C541 C546 1.390 . A
C542 C547 1.383 . A
C542 N549 1.358 . A
C544 C547 1.361 . A
C544 C548 1.367 . A
C545 C548 1.390 . A
C545 N549 1.325 . A
C550 C557 1.361 . A
C550 C559 1.367 . A
C550 H572 0.948 . S
Cu551 N553 2.117 . S
Cu551 N564 2.117 . S
Cu551 N588 2.117 . S
Cu551 N592 2.117 . S
Cu551 N595 2.117 . S
Cu551 N604 2.117 . S
C552 C557 1.383 . A
C552 N592 1.358 . A
C552 C597 1.468 . S
N553 C555 1.358 . A
N553 C558 1.325 . A
C554 C559 1.390 . A
C554 H573 0.950 . S
C554 N592 1.325 . A
C555 C560 1.383 . A
C555 C594 1.468 . S
H556 C600 0.950 . S
C557 H574 0.949 . S
C558 C562 1.390 1_554 A
C558 H566 0.950 . S
C560 C561 1.361 1_554 A
C560 H567 0.949 . S
C561 C562 1.367 . A
C561 H565 0.948 . S
H563 C602 0.949 . S
N564 C579 1.358 1_554 A
N564 C582 1.325 . A
H568 C599 0.949 . S
H569 C593 0.948 . S
H570 C596 0.950 . S
H571 C598 0.949 . S
C575 C581 1.361 . A
C575 C583 1.367 . A
C575 H589 0.948 . S
C576 C579 1.468 . S
C576 C581 1.383 . A
C576 N595 1.358 1_556 A
H577 C585 0.948 . S
C578 C583 1.390 . A
C578 H590 0.950 1_556 S
C578 N595 1.325 1_556 A
C579 C584 1.383 . A
H580 C582 0.950 . S
C581 H591 0.949 . S
C582 C586 1.390 . A
C584 C585 1.361 . A
C584 H587 0.949 . S
C585 C586 1.367 1_556 A
N588 C594 1.358 . A
N588 C596 1.325 . A
C593 C598 1.361 . A
C593 C601 1.367 . A
C594 C598 1.383 . A
C596 C601 1.390 . A
C597 C602 1.383 . A
C597 N604 1.358 . A
C599 C602 1.361 . A
C599 C603 1.367 . A
C600 C603 1.390 . A
C600 N604 1.325 . A
C605 C612 1.361 . A
C605 C614 1.367 1_554 A
C605 H627 0.948 . S
Cu606 N608 2.117 . S
Cu606 N619 2.117 . S
Cu606 N643 2.117 . S
Cu606 N647 2.117 . S
Cu606 N650 2.117 . S
Cu606 N659 2.117 . S
C607 C612 1.383 . A
C607 N647 1.358 1_554 A
C607 C652 1.468 . S
N608 C610 1.358 . A
N608 C613 1.325 . A
C609 C614 1.390 . A
C609 H628 0.950 . S
C609 N647 1.325 . A
C610 C615 1.383 . A
C610 C649 1.468 . S
H611 C655 0.950 1_556 S
C612 H629 0.949 . S
C613 C617 1.390 . A
C613 H621 0.950 . S
C615 C616 1.361 . A
C615 H622 0.949 . S
C616 C617 1.367 . A
C616 H620 0.948 . S
H618 C657 0.949 . S
N619 C634 1.358 . A
N619 C637 1.325 . A
H623 C654 0.949 . S
H624 C648 0.948 1_554 S
H625 C651 0.950 . S
H626 C653 0.949 . S
C630 C636 1.361 . A
C630 C638 1.367 . A
C630 H644 0.948 . S
C631 C634 1.468 . S
C631 C636 1.383 . A
C631 N650 1.358 . A
H632 C640 0.948 . S
C633 C638 1.390 . A
C633 H645 0.950 . S
C633 N650 1.325 . A
C634 C639 1.383 . A
H635 C637 0.950 . S
C636 H646 0.949 . S
C637 C641 1.390 . A
C639 C640 1.361 . A
C639 H642 0.949 . S
C640 C641 1.367 . A
N643 C649 1.358 . A
N643 C651 1.325 . A
C648 C653 1.361 . A
C648 C656 1.367 1_556 A
C649 C653 1.383 . A
C651 C656 1.390 1_556 A
C652 C657 1.383 . A
C652 N659 1.358 1_554 A
C654 C657 1.361 . A
C654 C658 1.367 . A
C655 C658 1.390 . A
C655 N659 1.325 1_554 A
C660 C661 1.382 . A
C660 C665 1.359 . A
C660 F666 1.344 . S
C661 C662 1.364 . A
C661 F667 1.331 . S
C662 C663 1.381 . A
C663 C664 1.372 . A
C663 F668 1.344 . S
C664 C665 1.372 . A
C664 F669 1.349 . S
C670 C671 1.382 . A
C670 C675 1.359 . A
C670 F676 1.344 . S
C671 C672 1.364 . A
C671 F677 1.331 . S
C672 C673 1.381 . A
C673 C674 1.372 . A
C673 F678 1.344 . S
C674 C675 1.372 . A
C674 F679 1.349 . S
C680 C681 1.382 . A
C680 C685 1.359 . A
C680 F686 1.344 . S
C681 C682 1.364 . A
C681 F687 1.331 . S
C682 C683 1.381 . A
C683 C684 1.372 . A
C683 F688 1.344 . S
C684 C685 1.372 . A
C684 F689 1.349 . S
C690 C691 1.382 . A
C690 C695 1.359 . A
C690 F696 1.344 . S
C691 C692 1.364 . A
C691 F697 1.331 . S
C692 C693 1.381 . A
C693 C694 1.372 . A
C693 F698 1.344 . S
C694 C695 1.372 . A
C694 F699 1.349 . S
C700 C701 1.382 . A
C700 C705 1.359 . A
C700 F706 1.344 . S
C701 C702 1.364 . A
C701 F707 1.331 . S
C702 C703 1.381 . A
C703 C704 1.372 . A
C703 F708 1.344 . S
C704 C705 1.372 . A
C704 F709 1.349 . S
C710 C711 1.382 . A
C710 C715 1.359 . A
C710 F716 1.344 . S
C711 C712 1.364 . A
C711 F717 1.331 . S
C712 C713 1.381 . A
C713 C714 1.372 . A
C713 F718 1.344 . S
C714 C715 1.372 . A
C714 F719 1.349 . S
C720 C721 1.382 . A
C720 C725 1.359 . A
C720 F726 1.344 . S
C721 C722 1.364 . A
C721 F727 1.331 . S
C722 C723 1.381 . A
C723 C724 1.372 . A
C723 F728 1.344 . S
C724 C725 1.372 . A
C724 F729 1.349 . S
C730 C731 1.382 . A
C730 C735 1.359 . A
C730 F736 1.344 . S
C731 C732 1.364 . A
C731 F737 1.331 . S
C732 C733 1.381 . A
C733 C734 1.372 . A
C733 F738 1.344 . S
C734 C735 1.372 . A
C734 F739 1.349 . S
C740 C741 1.382 . A
C740 C745 1.359 . A
C740 F746 1.344 . S
C741 C742 1.364 . A
C741 F747 1.331 . S
C742 C743 1.381 . A
C743 C744 1.372 . A
C743 F748 1.344 . S
C744 C745 1.372 . A
C744 F749 1.349 . S
C750 C751 1.382 . A
C750 C755 1.359 . A
C750 F756 1.344 . S
C751 C752 1.364 . A
C751 F757 1.331 . S
C752 C753 1.381 . A
C753 C754 1.372 . A
C753 F758 1.344 . S
C754 C755 1.372 . A
C754 F759 1.349 . S
C760 C761 1.382 . A
C760 C765 1.359 . A
C760 F766 1.344 . S
C761 C762 1.364 . A
C761 F767 1.331 . S
C762 C763 1.381 . A
C763 C764 1.372 . A
C763 F768 1.344 . S
C764 C765 1.372 . A
C764 F769 1.349 . S
C770 C771 1.382 . A
C770 C775 1.359 . A
C770 F776 1.344 . S
C771 C772 1.364 . A
C771 F777 1.331 . S
C772 C773 1.381 . A
C773 C774 1.372 . A
C773 F778 1.344 . S
C774 C775 1.372 . A
C774 F779 1.349 . S
C780 C781 1.382 . A
C780 C785 1.359 . A
C780 F786 1.344 . S
C781 C782 1.364 1_545 A
C781 F787 1.331 . S
C782 C783 1.381 . A
C783 C784 1.372 . A
C783 F788 1.344 . S
C784 C785 1.372 1_565 A
C784 F789 1.349 . S
C790 C791 1.382 1_655 A
C790 C795 1.359 . A
C790 F796 1.344 . S
C791 C792 1.364 . A
C791 F797 1.331 . S
C792 C793 1.367 1_455 A
C793 C794 1.386 . A
C793 F798 1.344 . S
C794 C795 1.372 . A
C794 F799 1.349 . S
C800 C801 1.382 . A
C800 C805 1.359 1_545 A
C800 F806 1.344 . S
C801 C802 1.364 . A
C801 F807 1.331 . S
C802 C803 1.381 1_545 A
C803 C804 1.372 . A
C803 F808 1.344 . S
C804 C805 1.372 . A
C804 F809 1.349 . S
C810 C811 1.382 . A
C810 C815 1.359 1_565 A
C810 F816 1.344 . S
C811 C812 1.364 . A
C811 F817 1.331 . S
C812 C813 1.381 1_565 A
C813 C814 1.372 . A
C813 F818 1.344 . S
C814 C815 1.372 . A
C814 F819 1.349 . S
C820 C821 1.382 . A
C820 C825 1.359 1_455 A
C820 F826 1.344 . S
C821 C822 1.364 . A
C821 F827 1.331 . S
C822 C823 1.375 1_455 A
C823 C824 1.376 . A
C823 F828 1.345 . S
C824 C825 1.372 . A
C824 F829 1.349 . S
C830 C831 1.382 . A
C830 C835 1.359 . A
C830 F836 1.344 . S
C831 C832 1.364 1_565 A
C831 F837 1.331 . S
C832 C833 1.381 . A
C833 C834 1.372 . A
C833 F838 1.344 . S
C834 C835 1.372 1_545 A
C834 F839 1.349 . S
C840 C841 1.382 . A
C840 C845 1.359 1_655 A
C840 F846 1.344 . S
C841 C842 1.364 . A
C841 F847 1.331 . S
C842 C843 1.381 1_655 A
C843 C844 1.372 . A
C843 F848 1.344 . S
C844 C845 1.372 . A
C844 F849 1.349 . S
C850 C851 1.382 . A
C850 C855 1.359 . A
C850 F856 1.344 . S
C851 C852 1.364 1_455 A
C851 F857 1.331 . S
C852 C853 1.381 . A
C853 C854 1.372 . A
C853 F858 1.344 . S
C854 C855 1.372 1_655 A
C854 F859 1.349 . S
C860 C861 1.382 . A
C860 C865 1.359 1_556 A
C860 F866 1.344 . S
C861 C862 1.364 . A
C861 F867 1.331 . S
C862 C863 1.381 1_556 A
C863 C864 1.372 . A
C863 F868 1.344 . S
C864 C865 1.372 . A
C864 F869 1.349 . S
C870 C871 1.382 . A
C870 C875 1.359 . A
C870 F876 1.344 . S
C871 C872 1.364 1_554 A
C871 F877 1.331 . S
C872 C873 1.381 . A
C873 C874 1.372 . A
C873 F878 1.344 . S
C874 C875 1.372 1_556 A
C874 F879 1.349 . S
C880 C881 1.382 . A
C880 C885 1.359 . A
C880 F886 1.344 . S
C881 C882 1.364 1_554 A
C881 F887 1.331 . S
C882 C883 1.381 . A
C883 C884 1.372 . A
C883 F888 1.344 . S
C884 C885 1.372 1_556 A
C884 F889 1.349 . S
C890 C891 1.382 . A
C890 C895 1.359 . A
C890 F896 1.344 . S
C891 C892 1.364 1_554 A
C891 F897 1.331 . S
C892 C893 1.381 . A
C893 C894 1.369 1_556 A
C893 F898 1.344 . S
C894 C895 1.374 . A
C894 F899 1.348 1_554 S
C662 C601 1.550 . S
C665 C9 1.596 . S
C672 C641 1.431 . S
C675 C106 1.671 . S
C682 C546 1.654 . S
C685 C146 1.390 . S
C692 C216 1.589 . S
C695 C64 1.609 . S
C702 C122 1.708 . S
C705 C229 1.659 . S
C712 C311 1.368 . S
C715 C51 1.567 . S
C722 C339 1.614 . S
C725 C397 1.656 . S
C732 C421 1.398 . S
C735 C452 1.725 . S
C742 C271 1.597 . S
C745 C504 1.622 . S
C752 C559 1.675 . S
C755 C287 1.715 . S
C762 C174 1.648 . S
C765 C617 1.676 . S
C772 C381 1.645 . S
C775 C476 1.378 . S
C782 C36 1.776 . S
C785 C394 2.089 . S
C792 C67 1.606 . S
C795 C232 1.605 . S
C802 C201 1.727 . S
C805 C119 2.068 . S
C812 C177 1.523 . S
C815 C12 1.555 . S
C822 C256 1.700 . S
C825 C284 2.029 . S
C832 C161 1.396 . S
C835 C436 1.355 . S
C842 C91 1.784 . S
C845 C366 1.795 . S
C852 C342 1.419 . S
C855 C326 1.308 . S
C862 C531 1.713 . S
C865 C449 2.049 . S
C872 C562 1.487 . S
C875 C507 1.512 . S
C882 C614 2.026 . S
C885 C586 1.712 . S
C892 C491 1.264 . S
C895 C656 1.300 . S
