# Generated by pormake.
# Topology eta, (3)-cn, num edge types: 1
# Building blocks:
#     Node 0, Type 0, BuildingBlock: N383, # of connection points: 5
#     Node 1, Type 0, BuildingBlock: N383, # of connection points: 5
#     Node 2, Type 0, BuildingBlock: N383, # of connection points: 5
#     Node 3, Type 0, BuildingBlock: N383, # of connection points: 5
#     Node 4, Type 0, BuildingBlock: N383, # of connection points: 5
#     Node 5, Type 0, BuildingBlock: N383, # of connection points: 5
#     Edge 6, Type (0, 0), BuildingBlock: E116, # of connection points: 2
#     Edge 7, Type (0, 0), BuildingBlock: E116, # of connection points: 2
#     Edge 8, Type (0, 0), BuildingBlock: E116, # of connection points: 2
#     Edge 9, Type (0, 0), BuildingBlock: E116, # of connection points: 2
#     Edge 10, Type (0, 0), BuildingBlock: E116, # of connection points: 2
#     Edge 11, Type (0, 0), BuildingBlock: E116, # of connection points: 2
#     Edge 12, Type (0, 0), BuildingBlock: E116, # of connection points: 2
#     Edge 13, Type (0, 0), BuildingBlock: E116, # of connection points: 2
#     Edge 14, Type (0, 0), BuildingBlock: E116, # of connection points: 2
# Relax obj value: 0.000
# Max RMSD: 0.038
# Mean RMSD: 0.038
data_eta+N383+E116
_symmetry_space_group_name_H-M    P1
_symmetry_Int_Tables_number       1
_symmetry_cell_setting            triclinic
loop_
_symmetry_equiv_pos_as_xyz
'x, y, z'
_cell_length_a     45.538
_cell_length_b     45.538
_cell_length_c     34.416
_cell_angle_alpha  89.996
_cell_angle_beta   90.004
_cell_angle_gamma  120.007
loop_
_atom_site_label
_atom_site_type_symbol
_atom_site_fract_x
_atom_site_fract_y
_atom_site_fract_z
_atom_type_partial_charge
Zn0 Zn 0.37464 0.56389 0.80230 0.00000
Zn1 Zn 0.44139 0.63411 0.84369 0.00000
O2 O 0.36242 0.57891 0.84707 0.00000
O3 O 0.40852 0.62362 0.88411 0.00000
O4 O 0.44828 0.59836 0.83512 0.00000
O5 O 0.40415 0.54537 0.80954 0.00000
C6 C 0.43642 0.56291 0.82725 0.00000
H7 H 0.31033 0.55908 0.78635 0.00000
O8 O 0.48556 0.67349 0.84662 0.00000
O9 O 0.48969 0.64712 0.90577 0.00000
C10 C 0.37377 0.59878 0.88143 0.00000
C11 C 0.50472 0.67246 0.87648 0.00000
C12 C 0.40657 0.63390 0.76836 0.00000
C13 C 0.30021 0.51378 0.77650 0.00000
O14 O 0.38833 0.59830 0.76476 0.00000
O15 O 0.42504 0.64852 0.80178 0.00000
O16 O 0.33323 0.52482 0.78584 0.00000
O17 O 0.29322 0.54186 0.77915 0.00000
H18 H 0.47582 0.62907 0.89580 0.00000
Zn19 Zn 0.81074 0.43614 0.19772 0.00000
Zn20 Zn 0.80724 0.36591 0.15633 0.00000
O21 O 0.78348 0.42111 0.15294 0.00000
O22 O 0.78486 0.37640 0.11591 0.00000
O23 O 0.84989 0.40166 0.16490 0.00000
O24 O 0.85877 0.45466 0.19047 0.00000
C25 C 0.87349 0.43711 0.17277 0.00000
H26 H 0.75124 0.44095 0.21365 0.00000
O27 O 0.81202 0.32653 0.15341 0.00000
O28 O 0.84251 0.35289 0.09426 0.00000
C29 C 0.77495 0.40124 0.11858 0.00000
C30 C 0.83220 0.32755 0.12355 0.00000
C31 C 0.77264 0.36613 0.23166 0.00000
C32 C 0.78644 0.48626 0.22350 0.00000
O33 O 0.79001 0.40173 0.23525 0.00000
O34 O 0.77648 0.35150 0.19824 0.00000
O35 O 0.80842 0.47521 0.21417 0.00000
O36 O 0.75136 0.45817 0.22085 0.00000
H37 H 0.84670 0.37094 0.10422 0.00000
Zn38 Zn 0.43613 0.81073 0.46895 0.00000
Zn39 Zn 0.36591 0.80724 0.51034 0.00000
O40 O 0.42111 0.78348 0.51372 0.00000
O41 O 0.37640 0.78485 0.55076 0.00000
O42 O 0.40166 0.84988 0.50177 0.00000
O43 O 0.45465 0.85876 0.47619 0.00000
C44 C 0.43710 0.87348 0.49390 0.00000
H45 H 0.44095 0.75124 0.45301 0.00000
O46 O 0.32652 0.81201 0.51326 0.00000
O47 O 0.35288 0.84251 0.57242 0.00000
C48 C 0.40124 0.77495 0.54808 0.00000
C49 C 0.32755 0.83219 0.54312 0.00000
C50 C 0.36612 0.77263 0.43501 0.00000
C51 C 0.48625 0.78643 0.44316 0.00000
O52 O 0.40172 0.79000 0.43141 0.00000
O53 O 0.35150 0.77647 0.46843 0.00000
O54 O 0.47521 0.80841 0.45249 0.00000
O55 O 0.45816 0.75135 0.44581 0.00000
H56 H 0.37094 0.84670 0.56245 0.00000
Zn57 Zn 0.62533 0.18930 0.53104 0.00000
Zn58 Zn 0.55858 0.19276 0.48964 0.00000
O59 O 0.63756 0.21655 0.48627 0.00000
O60 O 0.59146 0.21516 0.44922 0.00000
O61 O 0.55169 0.15012 0.49821 0.00000
O62 O 0.59582 0.14127 0.52380 0.00000
C63 C 0.56355 0.12653 0.50609 0.00000
H64 H 0.68964 0.24882 0.54699 0.00000
O65 O 0.51442 0.18797 0.48671 0.00000
O66 O 0.51028 0.15747 0.42756 0.00000
C67 C 0.62621 0.22508 0.45190 0.00000
C68 C 0.49525 0.16777 0.45685 0.00000
C69 C 0.59340 0.22737 0.56497 0.00000
C70 C 0.69976 0.21364 0.55684 0.00000
O71 O 0.61163 0.21002 0.56857 0.00000
O72 O 0.57493 0.22353 0.53155 0.00000
O73 O 0.66674 0.19164 0.54750 0.00000
O74 O 0.70675 0.24871 0.55419 0.00000
H75 H 0.52415 0.15329 0.43753 0.00000
Zn76 Zn 0.18929 0.62533 0.13563 0.00000
Zn77 Zn 0.19274 0.55858 0.17704 0.00000
O78 O 0.21654 0.63756 0.18041 0.00000
O79 O 0.21514 0.59146 0.21746 0.00000
O80 O 0.15010 0.55170 0.16846 0.00000
O81 O 0.14125 0.59583 0.14288 0.00000
C82 C 0.12652 0.56355 0.16058 0.00000
H83 H 0.24880 0.68964 0.11969 0.00000
O84 O 0.18795 0.51442 0.17997 0.00000
O85 O 0.15745 0.51029 0.23912 0.00000
C86 C 0.22506 0.62621 0.21477 0.00000
C87 C 0.16776 0.49525 0.20983 0.00000
C88 C 0.22736 0.59340 0.10170 0.00000
C89 C 0.21362 0.69976 0.10984 0.00000
O90 O 0.21000 0.61163 0.09811 0.00000
O91 O 0.22351 0.57493 0.13513 0.00000
O92 O 0.19163 0.66674 0.11917 0.00000
O93 O 0.24870 0.70675 0.11248 0.00000
H94 H 0.15327 0.52415 0.22915 0.00000
Zn95 Zn 0.56389 0.37463 0.86437 0.00000
Zn96 Zn 0.63411 0.44138 0.82297 0.00000
O97 O 0.57891 0.36240 0.81960 0.00000
O98 O 0.62362 0.40850 0.78255 0.00000
O99 O 0.59836 0.44827 0.83155 0.00000
O100 O 0.54537 0.40413 0.85712 0.00000
C101 C 0.56291 0.43641 0.83942 0.00000
H102 H 0.55909 0.31032 0.88032 0.00000
O103 O 0.67349 0.48554 0.82004 0.00000
O104 O 0.64713 0.48968 0.76089 0.00000
C105 C 0.59879 0.37376 0.78523 0.00000
C106 C 0.67247 0.50471 0.79019 0.00000
C107 C 0.63390 0.40656 0.89831 0.00000
C108 C 0.51378 0.30020 0.89016 0.00000
O109 O 0.59831 0.38832 0.90190 0.00000
O110 O 0.64853 0.42503 0.86488 0.00000
O111 O 0.52482 0.33322 0.88083 0.00000
O112 O 0.54187 0.29321 0.88752 0.00000
H113 H 0.62908 0.47581 0.77086 0.00000
H114 H 0.32641 0.61258 0.04714 0.00000
H115 H 0.32823 0.62005 0.10989 0.00000
H116 H 0.30310 0.62952 0.12974 0.00000
H117 H 0.24611 0.57785 0.97920 0.00000
H118 H 0.19599 0.56935 0.99461 0.00000
H119 H 0.18254 0.55906 0.03720 0.00000
H120 H 0.27347 0.57843 0.93493 0.00000
H121 H 0.27164 0.57097 0.87218 0.00000
H122 H 0.29678 0.56149 0.85233 0.00000
H123 H 0.35376 0.61317 0.00287 0.00000
H124 H 0.40389 0.62166 0.98746 0.00000
H125 H 0.41734 0.63196 0.94487 0.00000
C126 C 0.28463 0.60555 0.07537 0.00000
C127 C 0.30354 0.60545 0.04366 0.00000
C128 C 0.30485 0.61246 0.11525 0.00000
C129 C 0.23613 0.58378 0.03473 0.00000
C130 C 0.25606 0.58470 0.00359 0.00000
C131 C 0.19961 0.57652 0.02122 0.00000
C132 C 0.31525 0.58547 0.90670 0.00000
C133 C 0.29634 0.58556 0.93841 0.00000
C134 C 0.29502 0.57856 0.86682 0.00000
C135 C 0.36374 0.60723 0.94734 0.00000
C136 C 0.34381 0.60631 0.97848 0.00000
C137 C 0.40026 0.61449 0.96085 0.00000
C138 C 0.25033 0.59445 0.07131 0.00000
C139 C 0.28968 0.59529 0.00764 0.00000
C140 C 0.34954 0.59656 0.91076 0.00000
C141 C 0.31020 0.59572 0.97443 0.00000
H142 H 0.67399 0.31058 0.29950 0.00000
H143 H 0.67047 0.33227 0.24438 0.00000
H144 H 0.70271 0.36357 0.22689 0.00000
H145 H 0.75337 0.30798 0.34106 0.00000
H146 H 0.80501 0.33443 0.31838 0.00000
H147 H 0.81122 0.34159 0.27372 0.00000
H148 H 0.72610 0.28071 0.38513 0.00000
H149 H 0.72962 0.25902 0.44025 0.00000
H150 H 0.69738 0.22772 0.45774 0.00000
H151 H 0.64673 0.28331 0.34357 0.00000
H152 H 0.59508 0.25686 0.36625 0.00000
H153 H 0.58888 0.24970 0.41091 0.00000
C154 C 0.71572 0.33625 0.26638 0.00000
C155 C 0.69671 0.31659 0.29768 0.00000
C156 C 0.69277 0.34016 0.23415 0.00000
C157 C 0.76321 0.33391 0.29081 0.00000
C158 C 0.74352 0.31485 0.32208 0.00000
C159 C 0.80241 0.34623 0.29679 0.00000
C160 C 0.68437 0.25504 0.41826 0.00000
C161 C 0.70339 0.27470 0.38695 0.00000
C162 C 0.70733 0.25113 0.45048 0.00000
C163 C 0.63688 0.25739 0.39382 0.00000
C164 C 0.65657 0.27644 0.36255 0.00000
C165 C 0.59769 0.24506 0.38784 0.00000
C166 C 0.74948 0.34509 0.26241 0.00000
C167 C 0.71027 0.30587 0.32579 0.00000
C168 C 0.65062 0.24620 0.42222 0.00000
C169 C 0.68983 0.28542 0.35884 0.00000
H170 H 0.67731 0.38680 0.06466 0.00000
H171 H 0.67474 0.37813 0.12721 0.00000
H172 H 0.69916 0.36759 0.14682 0.00000
H173 H 0.75809 0.42129 0.99756 0.00000
H174 H 0.80767 0.42841 0.01317 0.00000
H175 H 0.82080 0.43772 0.05600 0.00000
H176 H 0.73146 0.42217 0.95329 0.00000
H177 H 0.73403 0.43083 0.89074 0.00000
H178 H 0.70961 0.44138 0.87112 0.00000
H179 H 0.65068 0.38768 0.02039 0.00000
H180 H 0.60111 0.38056 0.00478 0.00000
H181 H 0.58798 0.37125 0.96195 0.00000
C182 C 0.71848 0.39241 0.09304 0.00000
C183 C 0.70011 0.39354 0.06134 0.00000
C184 C 0.69797 0.38516 0.13275 0.00000
C185 C 0.76729 0.41402 0.05294 0.00000
C186 C 0.74787 0.41414 0.02178 0.00000
C187 C 0.80367 0.42075 0.03960 0.00000
C188 C 0.69029 0.41656 0.92491 0.00000
C189 C 0.70867 0.41543 0.95661 0.00000
C190 C 0.71081 0.42381 0.88520 0.00000
C191 C 0.64148 0.39494 0.96501 0.00000
C192 C 0.66091 0.39483 0.99617 0.00000
C193 C 0.60511 0.38822 0.97835 0.00000
C194 C 0.75267 0.40290 0.08925 0.00000
C195 C 0.71437 0.40416 0.02558 0.00000
C196 C 0.65611 0.40607 0.92870 0.00000
C197 C 0.69440 0.40481 0.99237 0.00000
H198 H 0.26988 0.68758 0.38112 0.00000
H199 H 0.26592 0.69694 0.44253 0.00000
H200 H 0.29842 0.71308 0.46874 0.00000
H201 H 0.34791 0.74026 0.31177 0.00000
H202 H 0.39871 0.77990 0.32836 0.00000
H203 H 0.40362 0.80290 0.36446 0.00000
H204 H 0.32139 0.71251 0.26759 0.00000
H205 H 0.32535 0.70315 0.20619 0.00000
H206 H 0.29285 0.68700 0.17997 0.00000
H207 H 0.24335 0.65982 0.33694 0.00000
H208 H 0.19256 0.62019 0.32035 0.00000
H209 H 0.18765 0.59719 0.28425 0.00000
C210 C 0.31068 0.72403 0.40919 0.00000
C211 C 0.29216 0.70484 0.37738 0.00000
C212 C 0.28761 0.71672 0.44681 0.00000
C213 C 0.35730 0.75632 0.36729 0.00000
C214 C 0.33816 0.73611 0.33638 0.00000
C215 C 0.39617 0.78016 0.35599 0.00000
C216 C 0.28059 0.67605 0.23953 0.00000
C217 C 0.29911 0.69525 0.27133 0.00000
C218 C 0.30366 0.68336 0.20191 0.00000
C219 C 0.23397 0.64377 0.28142 0.00000
C220 C 0.25310 0.66398 0.31234 0.00000
C221 C 0.19510 0.61993 0.29272 0.00000
C222 C 0.34373 0.75037 0.40447 0.00000
C223 C 0.30558 0.71045 0.34092 0.00000
C224 C 0.24754 0.64972 0.24425 0.00000
C225 C 0.28569 0.68964 0.30779 0.00000
H226 H 0.44800 0.69584 0.65850 0.00000
H227 H 0.47593 0.67183 0.68011 0.00000
H228 H 0.47485 0.66346 0.72444 0.00000
H229 H 0.36250 0.68542 0.69978 0.00000
H230 H 0.33726 0.66086 0.75392 0.00000
H231 H 0.34049 0.63042 0.77010 0.00000
H232 H 0.36098 0.71293 0.65688 0.00000
H233 H 0.33305 0.73694 0.63527 0.00000
H234 H 0.33413 0.74531 0.59093 0.00000
H235 H 0.44648 0.72335 0.61560 0.00000
H236 H 0.47172 0.74791 0.56146 0.00000
H237 H 0.46849 0.77835 0.54528 0.00000
C238 C 0.43264 0.66812 0.70761 0.00000
C239 C 0.43092 0.68731 0.67716 0.00000
C240 C 0.46160 0.65868 0.70117 0.00000
C241 C 0.38074 0.66108 0.73185 0.00000
C242 C 0.38030 0.68095 0.70138 0.00000
C243 C 0.35269 0.65414 0.76384 0.00000
C244 C 0.37634 0.74065 0.60777 0.00000
C245 C 0.37806 0.72146 0.63822 0.00000
C246 C 0.34738 0.75009 0.61420 0.00000
C247 C 0.42824 0.74768 0.58353 0.00000
C248 C 0.42868 0.72781 0.61399 0.00000
C249 C 0.45629 0.75463 0.55154 0.00000
C250 C 0.40725 0.65450 0.73549 0.00000
C251 C 0.40506 0.69407 0.67378 0.00000
C252 C 0.40173 0.75427 0.57989 0.00000
C253 C 0.40392 0.71470 0.64160 0.00000
H254 H 0.63859 0.29076 0.67338 0.00000
H255 H 0.66957 0.27255 0.64570 0.00000
H256 H 0.65232 0.23962 0.62020 0.00000
H257 H 0.55273 0.28124 0.63467 0.00000
H258 H 0.52227 0.25026 0.58604 0.00000
H259 H 0.53994 0.24387 0.55057 0.00000
H260 H 0.55243 0.30911 0.67789 0.00000
H261 H 0.52144 0.32733 0.70558 0.00000
H262 H 0.53869 0.36025 0.73107 0.00000
H263 H 0.63829 0.31863 0.71660 0.00000
H264 H 0.66874 0.34962 0.76523 0.00000
H265 H 0.65108 0.35600 0.80070 0.00000
C266 C 0.62151 0.26212 0.62507 0.00000
C267 C 0.62102 0.28213 0.65533 0.00000
C268 C 0.65663 0.26244 0.62261 0.00000
C269 C 0.57036 0.25716 0.60120 0.00000
C270 C 0.57044 0.27671 0.63231 0.00000
C271 C 0.53542 0.24024 0.57791 0.00000
C272 C 0.56950 0.33776 0.72620 0.00000
C273 C 0.57000 0.31774 0.69595 0.00000
C274 C 0.53438 0.33744 0.72866 0.00000
C275 C 0.62065 0.34272 0.75007 0.00000
C276 C 0.62058 0.32317 0.71896 0.00000
C277 C 0.65559 0.35964 0.77336 0.00000
C278 C 0.59605 0.24940 0.59726 0.00000
C279 C 0.59562 0.28949 0.65943 0.00000
C280 C 0.59497 0.35047 0.75401 0.00000
C281 C 0.59539 0.31039 0.69184 0.00000
H282 H 0.55539 0.53205 0.85115 0.00000
H283 H 0.60635 0.54009 0.85978 0.00000
H284 H 0.61122 0.50993 0.87330 0.00000
H285 H 0.47419 0.44785 0.81726 0.00000
H286 H 0.46873 0.39764 0.81171 0.00000
H287 H 0.50021 0.39411 0.80064 0.00000
H288 H 0.44842 0.47174 0.81552 0.00000
H289 H 0.39745 0.46370 0.80689 0.00000
H290 H 0.39258 0.49386 0.79336 0.00000
H291 H 0.52961 0.55594 0.84941 0.00000
H292 H 0.53507 0.60615 0.85496 0.00000
H293 H 0.50359 0.60968 0.86602 0.00000
C294 C 0.56346 0.49256 0.84656 0.00000
C295 C 0.54482 0.50914 0.84476 0.00000
C296 C 0.60292 0.51820 0.85288 0.00000
C297 C 0.51488 0.44215 0.82515 0.00000
C298 C 0.49693 0.45948 0.82447 0.00000
C299 C 0.49077 0.40228 0.81987 0.00000
C300 C 0.44034 0.51123 0.82011 0.00000
C301 C 0.45899 0.49465 0.82191 0.00000
C302 C 0.40088 0.48559 0.81379 0.00000
C303 C 0.48892 0.56164 0.84151 0.00000
C304 C 0.50687 0.54431 0.84219 0.00000
C305 C 0.51303 0.60150 0.84680 0.00000
C306 C 0.54864 0.45858 0.83649 0.00000
C307 C 0.51157 0.49294 0.83399 0.00000
C308 C 0.45517 0.54521 0.83017 0.00000
C309 C 0.49224 0.51085 0.83268 0.00000
H310 H 0.02432 0.55095 0.18712 0.00000
H311 H 0.06769 0.60162 0.19587 0.00000
H312 H 0.10331 0.60610 0.20576 0.00000
H313 H 0.02536 0.47100 0.14481 0.00000
H314 H 0.06968 0.46580 0.13354 0.00000
H315 H 0.10414 0.49765 0.12164 0.00000
H316 H 0.97569 0.44524 0.14624 0.00000
H317 H 0.93231 0.39457 0.13749 0.00000
H318 H 0.89670 0.39009 0.12760 0.00000
H319 H 0.97464 0.52519 0.18855 0.00000
H320 H 0.93032 0.53039 0.19982 0.00000
H321 H 0.89587 0.49854 0.21172 0.00000
C322 C 0.07153 0.55924 0.17783 0.00000
C323 C 0.03626 0.54063 0.17825 0.00000
C324 C 0.08574 0.59845 0.18651 0.00000
C325 C 0.07213 0.51144 0.15140 0.00000
C326 C 0.03687 0.49348 0.15301 0.00000
C327 C 0.08751 0.48757 0.14187 0.00000
C328 C 0.92847 0.43695 0.15553 0.00000
C329 C 0.96374 0.45556 0.15511 0.00000
C330 C 0.91426 0.39774 0.14685 0.00000
C331 C 0.92787 0.48475 0.18196 0.00000
C332 C 0.96313 0.50271 0.18035 0.00000
C333 C 0.91250 0.50862 0.19149 0.00000
C334 C 0.09008 0.54480 0.16409 0.00000
C335 C 0.01863 0.50775 0.16614 0.00000
C336 C 0.90993 0.45139 0.16927 0.00000
C337 C 0.98138 0.48843 0.16721 0.00000
H338 H 0.52722 0.97579 0.51859 0.00000
H339 H 0.53482 0.93248 0.52603 0.00000
H340 H 0.50398 0.89683 0.53651 0.00000
H341 H 0.44508 0.97456 0.47993 0.00000
H342 H 0.39532 0.93017 0.46989 0.00000
H343 H 0.39248 0.89576 0.45733 0.00000
H344 H 0.46896 0.02423 0.48140 0.00000
H345 H 0.46136 0.06754 0.47396 0.00000
H346 H 0.49220 0.10319 0.46348 0.00000
H347 H 0.55110 0.02546 0.52006 0.00000
H348 H 0.60086 0.06984 0.53010 0.00000
H349 H 0.60370 0.10426 0.54266 0.00000
C350 C 0.48811 0.92854 0.50999 0.00000
C351 C 0.50473 0.96380 0.51045 0.00000
C352 C 0.51338 0.91440 0.51722 0.00000
C353 C 0.43901 0.92783 0.48574 0.00000
C354 C 0.45630 0.96308 0.48736 0.00000
C355 C 0.39952 0.91238 0.47763 0.00000
C356 C 0.50807 0.07148 0.49000 0.00000
C357 C 0.49145 0.03621 0.48953 0.00000
C358 C 0.48280 0.08562 0.48277 0.00000
C359 C 0.55717 0.07219 0.51425 0.00000
C360 C 0.53989 0.03693 0.51262 0.00000
C361 C 0.59666 0.08764 0.52236 0.00000
C362 C 0.45479 0.90994 0.49732 0.00000
C363 C 0.48914 0.98138 0.49944 0.00000
C364 C 0.54139 0.09008 0.50266 0.00000
C365 C 0.50704 0.01864 0.50054 0.00000
loop_
_geom_bond_atom_site_label_1
_geom_bond_atom_site_label_2
_geom_bond_distance
_geom_bond_site_symmetry_2
_ccdc_geom_bond_type
Zn0 O2 1.880 . S
Zn0 O5 1.927 . S
Zn0 O14 1.880 . S
Zn0 O16 1.920 . S
Zn1 O3 1.921 . S
Zn1 O4 1.829 . S
Zn1 O8 1.914 . S
Zn1 O15 1.885 . S
O2 C10 1.420 . A
O3 C10 1.415 . A
O4 C6 1.449 . A
O5 C6 1.413 . A
H7 O17 0.820 . S
O8 C11 1.364 . A
O9 C11 1.424 . A
O9 H18 0.820 . S
C12 O14 1.409 . A
C12 O15 1.383 . A
C13 O16 1.364 . A
C13 O17 1.467 . A
Zn19 O21 1.880 . S
Zn19 O24 1.927 . S
Zn19 O33 1.880 . S
Zn19 O35 1.920 . S
Zn20 O22 1.921 . S
Zn20 O23 1.829 . S
Zn20 O27 1.914 . S
Zn20 O34 1.885 . S
O21 C29 1.420 . A
O22 C29 1.415 . A
O23 C25 1.449 . A
O24 C25 1.413 . A
H26 O36 0.820 . S
O27 C30 1.364 . A
O28 C30 1.424 . A
O28 H37 0.820 . S
C31 O33 1.409 . A
C31 O34 1.383 . A
C32 O35 1.364 . A
C32 O36 1.467 . A
Zn38 O40 1.880 . S
Zn38 O43 1.927 . S
Zn38 O52 1.880 . S
Zn38 O54 1.920 . S
Zn39 O41 1.921 . S
Zn39 O42 1.829 . S
Zn39 O46 1.914 . S
Zn39 O53 1.885 . S
O40 C48 1.420 . A
O41 C48 1.415 . A
O42 C44 1.449 . A
O43 C44 1.413 . A
H45 O55 0.820 . S
O46 C49 1.364 . A
O47 C49 1.424 . A
O47 H56 0.820 . S
C50 O52 1.409 . A
C50 O53 1.383 . A
C51 O54 1.364 . A
C51 O55 1.467 . A
Zn57 O59 1.880 . S
Zn57 O62 1.927 . S
Zn57 O71 1.880 . S
Zn57 O73 1.920 . S
Zn58 O60 1.921 . S
Zn58 O61 1.829 . S
Zn58 O65 1.914 . S
Zn58 O72 1.885 . S
O59 C67 1.420 . A
O60 C67 1.415 . A
O61 C63 1.449 . A
O62 C63 1.413 . A
H64 O74 0.820 . S
O65 C68 1.364 . A
O66 C68 1.424 . A
O66 H75 0.820 . S
C69 O71 1.409 . A
C69 O72 1.383 . A
C70 O73 1.364 . A
C70 O74 1.467 . A
Zn76 O78 1.880 . S
Zn76 O81 1.927 . S
Zn76 O90 1.880 . S
Zn76 O92 1.920 . S
Zn77 O79 1.921 . S
Zn77 O80 1.829 . S
Zn77 O84 1.914 . S
Zn77 O91 1.885 . S
O78 C86 1.420 . A
O79 C86 1.415 . A
O80 C82 1.449 . A
O81 C82 1.413 . A
H83 O93 0.820 . S
O84 C87 1.364 . A
O85 C87 1.424 . A
O85 H94 0.820 . S
C88 O90 1.409 . A
C88 O91 1.383 . A
C89 O92 1.364 . A
C89 O93 1.467 . A
Zn95 O97 1.880 . S
Zn95 O100 1.927 . S
Zn95 O109 1.880 . S
Zn95 O111 1.920 . S
Zn96 O98 1.921 . S
Zn96 O99 1.829 . S
Zn96 O103 1.914 . S
Zn96 O110 1.885 . S
O97 C105 1.420 . A
O98 C105 1.415 . A
O99 C101 1.449 . A
O100 C101 1.413 . A
H102 O112 0.820 . S
O103 C106 1.364 . A
O104 C106 1.424 . A
O104 H113 0.820 . S
C107 O109 1.409 . A
C107 O110 1.383 . A
C108 O111 1.364 . A
C108 O112 1.467 . A
H114 C127 0.931 . S
H115 C128 0.959 . S
H116 C128 0.960 . S
H117 C130 0.931 1_556 S
H118 C131 0.959 1_556 S
H119 C131 0.960 . S
H120 C133 0.931 . S
H121 C134 0.959 . S
H122 C134 0.960 . S
H123 C136 0.931 1_554 S
H124 C137 0.959 . S
H125 C137 0.960 . S
C126 C127 1.391 . A
C126 C128 1.594 . A
C126 C138 1.387 . A
C127 C139 1.363 . A
C129 C130 1.392 . A
C129 C131 1.594 . A
C129 C138 1.387 . A
C130 C139 1.363 . A
C132 C133 1.392 . A
C132 C134 1.594 . A
C132 C140 1.387 . A
C133 C141 1.363 . A
C135 C136 1.392 . A
C135 C137 1.594 . A
C135 C140 1.387 . A
C136 C141 1.363 . A
C139 C141 1.470 1_554 S
H142 C155 0.931 . S
H143 C156 0.959 . S
H144 C156 0.960 . S
H145 C158 0.931 . S
H146 C159 0.959 . S
H147 C159 0.960 . S
H148 C161 0.931 . S
H149 C162 0.959 . S
H150 C162 0.960 . S
H151 C164 0.931 . S
H152 C165 0.959 . S
H153 C165 0.960 . S
C154 C155 1.391 . A
C154 C156 1.594 . A
C154 C166 1.387 . A
C155 C167 1.363 . A
C157 C158 1.392 . A
C157 C159 1.594 . A
C157 C166 1.387 . A
C158 C167 1.363 . A
C160 C161 1.392 . A
C160 C162 1.594 . A
C160 C168 1.387 . A
C161 C169 1.363 . A
C163 C164 1.392 . A
C163 C165 1.594 . A
C163 C168 1.387 . A
C164 C169 1.363 . A
C167 C169 1.470 . S
H170 C183 0.931 . S
H171 C184 0.959 . S
H172 C184 0.960 . S
H173 C186 0.931 1_556 S
H174 C187 0.959 . S
H175 C187 0.960 . S
H176 C189 0.931 . S
H177 C190 0.959 . S
H178 C190 0.960 . S
H179 C192 0.931 1_554 S
H180 C193 0.959 1_554 S
H181 C193 0.960 . S
C182 C183 1.391 . A
C182 C184 1.594 . A
C182 C194 1.387 . A
C183 C195 1.363 . A
C185 C186 1.392 . A
C185 C187 1.594 . A
C185 C194 1.387 . A
C186 C195 1.363 . A
C188 C189 1.392 . A
C188 C190 1.594 . A
C188 C196 1.387 . A
C189 C197 1.363 . A
C191 C192 1.392 . A
C191 C193 1.594 . A
C191 C196 1.387 . A
C192 C197 1.363 . A
C195 C197 1.470 1_554 S
H198 C211 0.931 . S
H199 C212 0.959 . S
H200 C212 0.960 . S
H201 C214 0.931 . S
H202 C215 0.959 . S
H203 C215 0.960 . S
H204 C217 0.931 . S
H205 C218 0.959 . S
H206 C218 0.960 . S
H207 C220 0.931 . S
H208 C221 0.959 . S
H209 C221 0.960 . S
C210 C211 1.391 . A
C210 C212 1.594 . A
C210 C222 1.387 . A
C211 C223 1.363 . A
C213 C214 1.392 . A
C213 C215 1.594 . A
C213 C222 1.387 . A
C214 C223 1.363 . A
C216 C217 1.392 . A
C216 C218 1.594 . A
C216 C224 1.387 . A
C217 C225 1.363 . A
C219 C220 1.392 . A
C219 C221 1.594 . A
C219 C224 1.387 . A
C220 C225 1.363 . A
C223 C225 1.470 . S
H226 C239 0.931 . S
H227 C240 0.959 . S
H228 C240 0.960 . S
H229 C242 0.931 . S
H230 C243 0.959 . S
H231 C243 0.960 . S
H232 C245 0.931 . S
H233 C246 0.959 . S
H234 C246 0.960 . S
H235 C248 0.931 . S
H236 C249 0.959 . S
H237 C249 0.960 . S
C238 C239 1.391 . A
C238 C240 1.594 . A
C238 C250 1.387 . A
C239 C251 1.363 . A
C241 C242 1.392 . A
C241 C243 1.594 . A
C241 C250 1.387 . A
C242 C251 1.363 . A
C244 C245 1.392 . A
C244 C246 1.594 . A
C244 C252 1.387 . A
C245 C253 1.363 . A
C247 C248 1.392 . A
C247 C249 1.594 . A
C247 C252 1.387 . A
C248 C253 1.363 . A
C251 C253 1.470 . S
H254 C267 0.931 . S
H255 C268 0.959 . S
H256 C268 0.960 . S
H257 C270 0.931 . S
H258 C271 0.959 . S
H259 C271 0.960 . S
H260 C273 0.931 . S
H261 C274 0.959 . S
H262 C274 0.960 . S
H263 C276 0.931 . S
H264 C277 0.959 . S
H265 C277 0.960 . S
C266 C267 1.391 . A
C266 C268 1.594 . A
C266 C278 1.387 . A
C267 C279 1.363 . A
C269 C270 1.392 . A
C269 C271 1.594 . A
C269 C278 1.387 . A
C270 C279 1.363 . A
C272 C273 1.392 . A
C272 C274 1.594 . A
C272 C280 1.387 . A
C273 C281 1.363 . A
C275 C276 1.392 . A
C275 C277 1.594 . A
C275 C280 1.387 . A
C276 C281 1.363 . A
C279 C281 1.470 . S
H282 C295 0.931 . S
H283 C296 0.959 . S
H284 C296 0.960 . S
H285 C298 0.931 . S
H286 C299 0.959 . S
H287 C299 0.960 . S
H288 C301 0.931 . S
H289 C302 0.959 . S
H290 C302 0.960 . S
H291 C304 0.931 . S
H292 C305 0.959 . S
H293 C305 0.960 . S
C294 C295 1.391 . A
C294 C296 1.594 . A
C294 C306 1.387 . A
C295 C307 1.363 . A
C297 C298 1.392 . A
C297 C299 1.594 . A
C297 C306 1.387 . A
C298 C307 1.363 . A
C300 C301 1.392 . A
C300 C302 1.594 . A
C300 C308 1.387 . A
C301 C309 1.363 . A
C303 C304 1.392 . A
C303 C305 1.594 . A
C303 C308 1.387 . A
C304 C309 1.363 . A
C307 C309 1.470 . S
H310 C323 0.931 . S
H311 C324 0.959 . S
H312 C324 0.960 . S
H313 C326 0.931 . S
H314 C327 0.959 . S
H315 C327 0.960 . S
H316 C329 0.931 . S
H317 C330 0.959 . S
H318 C330 0.960 . S
H319 C332 0.931 . S
H320 C333 0.959 . S
H321 C333 0.960 . S
C322 C323 1.391 . A
C322 C324 1.594 . A
C322 C334 1.387 . A
C323 C335 1.363 . A
C325 C326 1.392 . A
C325 C327 1.594 . A
C325 C334 1.387 . A
C326 C335 1.363 . A
C328 C329 1.392 . A
C328 C330 1.594 . A
C328 C336 1.387 . A
C329 C337 1.363 . A
C331 C332 1.392 . A
C331 C333 1.594 . A
C331 C336 1.387 . A
C332 C337 1.363 . A
C335 C337 1.470 1_455 S
H338 C351 0.931 . S
H339 C352 0.959 . S
H340 C352 0.960 . S
H341 C354 0.931 . S
H342 C355 0.959 . S
H343 C355 0.960 . S
H344 C357 0.931 . S
H345 C358 0.959 . S
H346 C358 0.960 . S
H347 C360 0.931 . S
H348 C361 0.959 . S
H349 C361 0.960 . S
C350 C351 1.391 . A
C350 C352 1.594 . A
C350 C362 1.387 . A
C351 C363 1.363 . A
C353 C354 1.392 . A
C353 C355 1.594 . A
C353 C362 1.387 . A
C354 C363 1.363 . A
C356 C357 1.392 . A
C356 C358 1.594 . A
C356 C364 1.387 . A
C357 C365 1.363 . A
C359 C360 1.392 . A
C359 C361 1.594 . A
C359 C364 1.387 . A
C360 C365 1.363 . A
C363 C365 1.470 1_565 S
C138 C88 1.463 . S
C140 C10 1.461 . S
C166 C31 1.463 . S
C168 C67 1.461 . S
C194 C29 1.460 . S
C196 C107 1.463 . S
C222 C50 1.462 . S
C224 C86 1.458 . S
C250 C12 1.460 . S
C252 C48 1.451 . S
C278 C69 1.461 . S
C280 C105 1.458 . S
C306 C101 1.452 . S
C308 C6 1.441 . S
C334 C82 1.442 . S
C336 C25 1.453 . S
C362 C44 1.443 . S
C364 C63 1.453 . S
