# Generated by pormake.
# Topology fna, (5)-cn, num edge types: 1
# Building blocks:
#     Node 0, Type 0, BuildingBlock: N172, # of connection points: 5
#     Node 1, Type 0, BuildingBlock: N172, # of connection points: 5
#     Node 2, Type 0, BuildingBlock: N172, # of connection points: 5
#     Node 3, Type 0, BuildingBlock: N172, # of connection points: 5
#     Node 4, Type 0, BuildingBlock: N172, # of connection points: 5
#     Node 5, Type 0, BuildingBlock: N172, # of connection points: 5
#     Node 6, Type 0, BuildingBlock: N172, # of connection points: 5
#     Node 7, Type 0, BuildingBlock: N172, # of connection points: 5
#     Node 8, Type 0, BuildingBlock: N172, # of connection points: 5
#     Node 9, Type 0, BuildingBlock: N172, # of connection points: 5
#     Node 10, Type 0, BuildingBlock: N172, # of connection points: 5
#     Node 11, Type 0, BuildingBlock: N172, # of connection points: 5
#     Edge 12, Type (0, 0), BuildingBlock: E177, # of connection points: 2
#     Edge 13, Type (0, 0), BuildingBlock: E177, # of connection points: 2
#     Edge 14, Type (0, 0), BuildingBlock: E177, # of connection points: 2
#     Edge 15, Type (0, 0), BuildingBlock: E177, # of connection points: 2
#     Edge 16, Type (0, 0), BuildingBlock: E177, # of connection points: 2
#     Edge 17, Type (0, 0), BuildingBlock: E177, # of connection points: 2
#     Edge 18, Type (0, 0), BuildingBlock: E177, # of connection points: 2
#     Edge 19, Type (0, 0), BuildingBlock: E177, # of connection points: 2
#     Edge 20, Type (0, 0), BuildingBlock: E177, # of connection points: 2
#     Edge 21, Type (0, 0), BuildingBlock: E177, # of connection points: 2
#     Edge 22, Type (0, 0), BuildingBlock: E177, # of connection points: 2
#     Edge 23, Type (0, 0), BuildingBlock: E177, # of connection points: 2
#     Edge 24, Type (0, 0), BuildingBlock: E177, # of connection points: 2
#     Edge 25, Type (0, 0), BuildingBlock: E177, # of connection points: 2
#     Edge 26, Type (0, 0), BuildingBlock: E177, # of connection points: 2
#     Edge 27, Type (0, 0), BuildingBlock: E177, # of connection points: 2
#     Edge 28, Type (0, 0), BuildingBlock: E177, # of connection points: 2
#     Edge 29, Type (0, 0), BuildingBlock: E177, # of connection points: 2
#     Edge 30, Type (0, 0), BuildingBlock: E177, # of connection points: 2
#     Edge 31, Type (0, 0), BuildingBlock: E177, # of connection points: 2
#     Edge 32, Type (0, 0), BuildingBlock: E177, # of connection points: 2
#     Edge 33, Type (0, 0), BuildingBlock: E177, # of connection points: 2
#     Edge 34, Type (0, 0), BuildingBlock: E177, # of connection points: 2
#     Edge 35, Type (0, 0), BuildingBlock: E177, # of connection points: 2
#     Edge 36, Type (0, 0), BuildingBlock: E177, # of connection points: 2
#     Edge 37, Type (0, 0), BuildingBlock: E177, # of connection points: 2
#     Edge 38, Type (0, 0), BuildingBlock: E177, # of connection points: 2
#     Edge 39, Type (0, 0), BuildingBlock: E177, # of connection points: 2
#     Edge 40, Type (0, 0), BuildingBlock: E177, # of connection points: 2
#     Edge 41, Type (0, 0), BuildingBlock: E177, # of connection points: 2
# Relax obj value: 0.346
# Max RMSD: 0.249
# Mean RMSD: 0.249
data_fna+N172+E177
_symmetry_space_group_name_H-M    P1
_symmetry_Int_Tables_number       1
_symmetry_cell_setting            triclinic
loop_
_symmetry_equiv_pos_as_xyz
'x, y, z'
_cell_length_a     38.425
_cell_length_b     38.421
_cell_length_c     34.586
_cell_angle_alpha  89.997
_cell_angle_beta   89.999
_cell_angle_gamma  119.996
loop_
_atom_site_label
_atom_site_type_symbol
_atom_site_fract_x
_atom_site_fract_y
_atom_site_fract_z
_atom_type_partial_charge
O0 O 0.95564 0.31390 0.94139 0.00000
O1 O 0.98979 0.37576 0.96808 0.00000
Zn2 Zn 0.00442 0.37015 0.02110 0.00000
Zn3 Zn 0.95765 0.27508 0.98130 0.00000
O4 O 0.95950 0.31201 0.02692 0.00000
Zn5 Zn 0.90581 0.30515 0.03196 0.00000
C6 C 0.93315 0.38795 0.03528 0.00000
O7 O 0.87981 0.27010 0.07678 0.00000
C8 C 0.86968 0.25287 0.97186 0.00000
O9 O 0.90130 0.35330 0.03718 0.00000
O10 O 0.96803 0.39559 0.04047 0.00000
O11 O 0.93580 0.27503 0.09950 0.00000
C12 C 0.04763 0.32911 0.98770 0.00000
O13 O 0.01783 0.29813 0.97784 0.00000
O14 O 0.04901 0.35744 0.00606 0.00000
C15 C 0.97037 0.35159 0.94002 0.00000
C16 C 0.89966 0.26025 0.09809 0.00000
H17 H 0.96497 0.30143 0.05093 0.00000
O18 O 0.89345 0.24117 0.98093 0.00000
O19 O 0.86861 0.28183 0.98832 0.00000
O20 O 0.64176 0.95567 0.10809 0.00000
O21 O 0.61405 0.98983 0.13477 0.00000
Zn22 Zn 0.63427 0.00445 0.18780 0.00000
Zn23 Zn 0.68258 0.95769 0.14800 0.00000
O24 O 0.64751 0.95954 0.19362 0.00000
Zn25 Zn 0.60067 0.90584 0.19866 0.00000
C26 C 0.54522 0.93318 0.20198 0.00000
O27 O 0.60972 0.87984 0.24348 0.00000
C28 C 0.61683 0.86970 0.13856 0.00000
O29 O 0.54802 0.90133 0.20387 0.00000
O30 O 0.57246 0.96806 0.20717 0.00000
O31 O 0.66077 0.93584 0.26620 0.00000
C32 C 0.71852 0.04768 0.15440 0.00000
O33 O 0.71970 0.01787 0.14453 0.00000
O34 O 0.69157 0.04906 0.17275 0.00000
C35 C 0.61881 0.97041 0.10671 0.00000
C36 C 0.63942 0.89970 0.26479 0.00000
H37 H 0.66354 0.96501 0.21763 0.00000
O38 O 0.65229 0.89347 0.14764 0.00000
O39 O 0.58681 0.86864 0.15502 0.00000
O40 O 0.64177 0.68613 0.05882 0.00000
O41 O 0.61406 0.62427 0.03214 0.00000
Zn42 Zn 0.63429 0.62986 0.97912 0.00000
Zn43 Zn 0.68259 0.72494 0.01891 0.00000
O44 O 0.64752 0.68802 0.97330 0.00000
Zn45 Zn 0.60068 0.69488 0.96825 0.00000
C46 C 0.54523 0.61208 0.96494 0.00000
O47 O 0.60973 0.72993 0.92343 0.00000
C48 C 0.61684 0.74717 0.02835 0.00000
O49 O 0.54803 0.64674 0.96305 0.00000
O50 O 0.57247 0.60444 0.95975 0.00000
O51 O 0.66079 0.72498 0.90071 0.00000
C52 C 0.71853 0.67089 0.01251 0.00000
O53 O 0.71971 0.70188 0.02237 0.00000
O54 O 0.69159 0.64256 0.99415 0.00000
C55 C 0.61882 0.64845 0.06020 0.00000
C56 C 0.63944 0.73977 0.90212 0.00000
H57 H 0.66356 0.69858 0.94928 0.00000
O58 O 0.65230 0.75886 0.01927 0.00000
O59 O 0.58682 0.71822 0.01190 0.00000
O60 O 0.95565 0.64175 0.22556 0.00000
O61 O 0.98981 0.61404 0.19887 0.00000
Zn62 Zn 0.00444 0.63427 0.14585 0.00000
Zn63 Zn 0.95767 0.68258 0.18566 0.00000
O64 O 0.95952 0.64751 0.14003 0.00000
Zn65 Zn 0.90583 0.60067 0.13499 0.00000
C66 C 0.93317 0.54521 0.13167 0.00000
O67 O 0.87983 0.60973 0.09018 0.00000
C68 C 0.86970 0.61683 0.19509 0.00000
O69 O 0.90132 0.54801 0.12978 0.00000
O70 O 0.96805 0.57245 0.12648 0.00000
O71 O 0.93583 0.66079 0.06746 0.00000
C72 C 0.04765 0.71852 0.17925 0.00000
O73 O 0.01785 0.71970 0.18911 0.00000
O74 O 0.04903 0.69158 0.16089 0.00000
C75 C 0.97039 0.61880 0.22693 0.00000
C76 C 0.89969 0.63944 0.06887 0.00000
H77 H 0.96500 0.66355 0.11602 0.00000
O78 O 0.89347 0.65229 0.18602 0.00000
O79 O 0.86863 0.58680 0.17864 0.00000
O80 O 0.04436 0.35828 0.72556 0.00000
O81 O 0.01021 0.38599 0.69887 0.00000
Zn82 Zn 0.99559 0.36577 0.64585 0.00000
Zn83 Zn 0.04234 0.31745 0.68566 0.00000
O84 O 0.04050 0.35253 0.64004 0.00000
Zn85 Zn 0.09419 0.39936 0.63499 0.00000
C86 C 0.06686 0.45483 0.63167 0.00000
O87 O 0.12019 0.39031 0.59018 0.00000
C88 C 0.13032 0.38320 0.69509 0.00000
O89 O 0.09871 0.45203 0.62978 0.00000
O90 O 0.03198 0.42759 0.62648 0.00000
O91 O 0.06420 0.33925 0.56746 0.00000
C92 C 0.95236 0.28151 0.67925 0.00000
O93 O 0.98217 0.28033 0.68912 0.00000
O94 O 0.95099 0.30846 0.66089 0.00000
C95 C 0.02963 0.38123 0.72694 0.00000
C96 C 0.10033 0.36060 0.56887 0.00000
H97 H 0.03503 0.33649 0.61603 0.00000
O98 O 0.10655 0.34774 0.68602 0.00000
O99 O 0.13139 0.41323 0.67864 0.00000
O100 O 0.68613 0.04439 0.89221 0.00000
O101 O 0.62427 0.01024 0.86553 0.00000
Zn102 Zn 0.62987 0.99560 0.81251 0.00000
Zn103 Zn 0.72493 0.04237 0.85231 0.00000
O104 O 0.68801 0.04052 0.80669 0.00000
Zn105 Zn 0.69487 0.09422 0.80164 0.00000
C106 C 0.61209 0.06688 0.79832 0.00000
O107 O 0.72992 0.12022 0.75682 0.00000
C108 C 0.74716 0.13035 0.86173 0.00000
O109 O 0.64673 0.09874 0.79642 0.00000
O110 O 0.60444 0.03200 0.79313 0.00000
O111 O 0.72498 0.06421 0.73410 0.00000
C112 C 0.67090 0.95238 0.84591 0.00000
O113 O 0.70188 0.98218 0.85577 0.00000
O114 O 0.64257 0.95100 0.82755 0.00000
C115 C 0.64845 0.02966 0.89359 0.00000
C116 C 0.73977 0.10035 0.73551 0.00000
H117 H 0.69858 0.03504 0.78267 0.00000
O118 O 0.75885 0.10658 0.85266 0.00000
O119 O 0.71820 0.13142 0.84528 0.00000
O120 O 0.35823 0.31386 0.55889 0.00000
O121 O 0.38594 0.37573 0.53221 0.00000
Zn122 Zn 0.36572 0.37014 0.47919 0.00000
Zn123 Zn 0.31741 0.27506 0.51899 0.00000
O124 O 0.35248 0.31199 0.47337 0.00000
Zn125 Zn 0.39932 0.30513 0.46832 0.00000
C126 C 0.45477 0.38792 0.46501 0.00000
O127 O 0.39027 0.27008 0.42350 0.00000
C128 C 0.38315 0.25282 0.52842 0.00000
O129 O 0.45197 0.35327 0.46311 0.00000
O130 O 0.42754 0.39557 0.45982 0.00000
O131 O 0.33922 0.27503 0.40078 0.00000
C132 C 0.28147 0.32911 0.51258 0.00000
O133 O 0.28029 0.29813 0.52245 0.00000
O134 O 0.30842 0.35744 0.49423 0.00000
C135 C 0.38118 0.35155 0.56027 0.00000
C136 C 0.36057 0.26024 0.40219 0.00000
H137 H 0.33645 0.30143 0.44935 0.00000
O138 O 0.34770 0.24114 0.51935 0.00000
O139 O 0.41318 0.28178 0.51196 0.00000
O140 O 0.31387 0.95561 0.39221 0.00000
O141 O 0.37573 0.98977 0.36552 0.00000
Zn142 Zn 0.37013 0.00440 0.31250 0.00000
Zn143 Zn 0.27506 0.95764 0.35230 0.00000
O144 O 0.31199 0.95949 0.30668 0.00000
Zn145 Zn 0.30513 0.90579 0.30163 0.00000
C146 C 0.38792 0.93312 0.29832 0.00000
O147 O 0.27008 0.87980 0.25682 0.00000
C148 C 0.25284 0.86965 0.36173 0.00000
O149 O 0.35327 0.90127 0.29642 0.00000
O150 O 0.39556 0.96801 0.29313 0.00000
O151 O 0.27503 0.93580 0.23410 0.00000
C152 C 0.32910 0.04763 0.34590 0.00000
O153 O 0.29812 0.01782 0.35577 0.00000
O154 O 0.35743 0.04901 0.32754 0.00000
C155 C 0.35155 0.97034 0.39358 0.00000
C156 C 0.26024 0.89966 0.23551 0.00000
H157 H 0.30142 0.96497 0.28267 0.00000
O158 O 0.24115 0.89343 0.35266 0.00000
O159 O 0.28180 0.86858 0.34528 0.00000
O160 O 0.68613 0.64176 0.27477 0.00000
O161 O 0.62427 0.61406 0.30145 0.00000
Zn162 Zn 0.62987 0.63428 0.35448 0.00000
Zn163 Zn 0.72493 0.68259 0.31467 0.00000
O164 O 0.68801 0.64751 0.36029 0.00000
Zn165 Zn 0.69487 0.60067 0.36534 0.00000
C166 C 0.61209 0.54522 0.36866 0.00000
O167 O 0.72992 0.60972 0.41015 0.00000
C168 C 0.74716 0.61683 0.30524 0.00000
O169 O 0.64673 0.54801 0.37055 0.00000
O170 O 0.60444 0.57246 0.37385 0.00000
O171 O 0.72497 0.66078 0.43287 0.00000
C172 C 0.67090 0.71854 0.32108 0.00000
O173 O 0.70188 0.71971 0.31121 0.00000
O174 O 0.64257 0.69159 0.33943 0.00000
C175 C 0.64845 0.61881 0.27339 0.00000
C176 C 0.73976 0.63943 0.43147 0.00000
H177 H 0.69858 0.66355 0.38430 0.00000
O178 O 0.75885 0.65229 0.31431 0.00000
O179 O 0.71821 0.58680 0.32170 0.00000
O180 O 0.04437 0.68610 0.44141 0.00000
O181 O 0.01021 0.62424 0.46809 0.00000
Zn182 Zn 0.99558 0.62984 0.52112 0.00000
Zn183 Zn 0.04235 0.72491 0.48131 0.00000
O184 O 0.04049 0.68798 0.52693 0.00000
Zn185 Zn 0.09419 0.69484 0.53198 0.00000
C186 C 0.06685 0.61204 0.53530 0.00000
O187 O 0.12018 0.72989 0.57679 0.00000
C188 C 0.13032 0.74713 0.47187 0.00000
O189 O 0.09870 0.64669 0.53719 0.00000
O190 O 0.03197 0.60440 0.54049 0.00000
O191 O 0.06419 0.72495 0.59951 0.00000
C192 C 0.95237 0.67087 0.48772 0.00000
O193 O 0.98217 0.70186 0.47785 0.00000
O194 O 0.95098 0.64254 0.50608 0.00000
C195 C 0.02963 0.64841 0.44003 0.00000
C196 C 0.10032 0.73974 0.59810 0.00000
H197 H 0.03502 0.69855 0.55094 0.00000
O198 O 0.10655 0.75882 0.48094 0.00000
O199 O 0.13139 0.71817 0.48833 0.00000
O200 O 0.35824 0.04433 0.60808 0.00000
O201 O 0.38594 0.01017 0.63476 0.00000
Zn202 Zn 0.36572 0.99553 0.68779 0.00000
Zn203 Zn 0.31741 0.04230 0.64799 0.00000
O204 O 0.35248 0.04045 0.69360 0.00000
Zn205 Zn 0.39932 0.09415 0.69865 0.00000
C206 C 0.45477 0.06681 0.70196 0.00000
O207 O 0.39026 0.12015 0.74346 0.00000
C208 C 0.38316 0.13029 0.63855 0.00000
O209 O 0.45197 0.09866 0.70386 0.00000
O210 O 0.42753 0.03193 0.70715 0.00000
O211 O 0.33921 0.06414 0.76619 0.00000
C212 C 0.28147 0.95231 0.65439 0.00000
O213 O 0.28030 0.98212 0.64453 0.00000
O214 O 0.30842 0.95093 0.67275 0.00000
C215 C 0.38119 0.02959 0.60670 0.00000
C216 C 0.36056 0.10028 0.76478 0.00000
H217 H 0.33644 0.03498 0.71762 0.00000
O218 O 0.34770 0.10652 0.64762 0.00000
O219 O 0.41318 0.13136 0.65500 0.00000
O220 O 0.31386 0.35822 0.77478 0.00000
O221 O 0.37571 0.38592 0.80146 0.00000
Zn222 Zn 0.37011 0.36569 0.85448 0.00000
Zn223 Zn 0.27505 0.31739 0.81468 0.00000
O224 O 0.31197 0.35246 0.86030 0.00000
Zn225 Zn 0.30512 0.39930 0.86535 0.00000
C226 C 0.38790 0.45475 0.86866 0.00000
O227 O 0.27007 0.39025 0.91016 0.00000
C228 C 0.25283 0.38315 0.80525 0.00000
O229 O 0.35325 0.45196 0.87055 0.00000
O230 O 0.39554 0.42751 0.87385 0.00000
O231 O 0.27500 0.33919 0.93288 0.00000
C232 C 0.32909 0.28143 0.82109 0.00000
O233 O 0.29811 0.28026 0.81122 0.00000
O234 O 0.35741 0.30838 0.83944 0.00000
C235 C 0.35154 0.38117 0.77340 0.00000
C236 C 0.26022 0.36054 0.93147 0.00000
H237 H 0.30140 0.33642 0.88431 0.00000
O238 O 0.24114 0.34769 0.81432 0.00000
O239 O 0.28179 0.41318 0.82170 0.00000
H240 H 0.72095 0.14787 0.85080 0.00000
H241 H 0.70282 0.13493 0.89340 0.00000
H242 H 0.78236 0.14413 0.92179 0.00000
H243 H 0.73703 0.26713 0.83708 0.00000
H244 H 0.72045 0.20203 0.85271 0.00000
C245 C 0.72616 0.14079 0.87681 0.00000
C246 C 0.76343 0.17670 0.89343 0.00000
C247 C 0.78830 0.17074 0.91613 0.00000
C248 C 0.77185 0.21630 0.88421 0.00000
C249 C 0.75509 0.26251 0.85200 0.00000
C250 C 0.74523 0.22393 0.86144 0.00000
H251 H 0.86553 0.29950 0.94521 0.00000
H252 H 0.89282 0.28656 0.92122 0.00000
H253 H 0.84072 0.19975 0.94863 0.00000
H254 H 0.79927 0.32211 0.85692 0.00000
H255 H 0.84253 0.31179 0.89552 0.00000
C256 C 0.87074 0.27714 0.94037 0.00000
C257 C 0.83318 0.24203 0.92318 0.00000
C258 C 0.82377 0.20428 0.93189 0.00000
C259 C 0.80807 0.24963 0.89846 0.00000
C260 C 0.79223 0.29559 0.86440 0.00000
C261 C 0.81793 0.28941 0.88714 0.00000
H262 H 0.63986 0.73455 0.06144 0.00000
H263 H 0.63939 0.75573 0.02180 0.00000
H264 H 0.56912 0.76448 0.05131 0.00000
H265 H 0.74793 0.82425 0.11897 0.00000
H266 H 0.69555 0.78243 0.07847 0.00000
C267 C 0.62473 0.74451 0.04638 0.00000
C268 C 0.62379 0.77794 0.06899 0.00000
C269 C 0.59127 0.78225 0.06698 0.00000
C270 C 0.65722 0.80395 0.09254 0.00000
C271 C 0.72418 0.82608 0.11834 0.00000
C272 C 0.69316 0.80143 0.09422 0.00000
H273 H 0.64551 0.89464 0.13552 0.00000
H274 H 0.60863 0.86149 0.16025 0.00000
H275 H 0.56693 0.81684 0.08603 0.00000
H276 H 0.74211 0.87055 0.15974 0.00000
H277 H 0.68568 0.87749 0.15678 0.00000
C278 C 0.61815 0.87106 0.13362 0.00000
C279 C 0.62024 0.83800 0.11147 0.00000
C280 C 0.58972 0.81348 0.08831 0.00000
C281 C 0.65491 0.83382 0.11512 0.00000
C282 C 0.72093 0.85432 0.14242 0.00000
C283 C 0.68737 0.85827 0.14076 0.00000
H284 H 0.86822 0.61542 0.17276 0.00000
H285 H 0.84929 0.57047 0.18864 0.00000
H286 H 0.84259 0.59868 0.26956 0.00000
H287 H 0.77337 0.61204 0.10227 0.00000
H288 H 0.81827 0.60183 0.13831 0.00000
C289 C 0.85982 0.59882 0.19648 0.00000
C290 C 0.82626 0.60247 0.21577 0.00000
C291 C 0.82359 0.60169 0.25447 0.00000
C292 C 0.79837 0.60732 0.19252 0.00000
C293 C 0.77268 0.61285 0.12970 0.00000
C294 C 0.79915 0.60661 0.15111 0.00000
H295 H 0.70852 0.60203 0.25628 0.00000
H296 H 0.74144 0.64325 0.27570 0.00000
H297 H 0.79008 0.60387 0.30061 0.00000
H298 H 0.72668 0.62581 0.13331 0.00000
H299 H 0.72255 0.62518 0.20012 0.00000
C300 C 0.73283 0.61439 0.27272 0.00000
C301 C 0.76596 0.61085 0.25234 0.00000
C302 C 0.79225 0.60535 0.27322 0.00000
C303 C 0.76834 0.61280 0.21122 0.00000
C304 C 0.74421 0.62053 0.14836 0.00000
C305 C 0.74193 0.62032 0.18797 0.00000
H306 H 0.13285 0.38639 0.67240 0.00000
H307 H 0.15067 0.43058 0.68995 0.00000
H308 H 0.15645 0.39958 0.76976 0.00000
H309 H 0.23006 0.39467 0.60213 0.00000
H310 H 0.18373 0.40232 0.63850 0.00000
C311 C 0.14049 0.40202 0.69672 0.00000
C312 C 0.17412 0.39837 0.71588 0.00000
C313 C 0.17603 0.39764 0.75459 0.00000
C314 C 0.20288 0.39514 0.69248 0.00000
C315 C 0.23024 0.39278 0.62951 0.00000
C316 C 0.20290 0.39749 0.65113 0.00000
H317 H 0.29232 0.39977 0.75643 0.00000
H318 H 0.25957 0.35753 0.77430 0.00000
H319 H 0.20902 0.39436 0.80063 0.00000
H320 H 0.27695 0.38084 0.63266 0.00000
H321 H 0.27977 0.37886 0.69945 0.00000
C322 C 0.26769 0.38635 0.77239 0.00000
C323 C 0.23453 0.38995 0.75214 0.00000
C324 C 0.20741 0.39396 0.77320 0.00000
C325 C 0.23299 0.38963 0.71098 0.00000
C326 C 0.25881 0.38507 0.64789 0.00000
C327 C 0.26032 0.38372 0.68748 0.00000
H328 H 0.43395 0.13445 0.61192 0.00000
H329 H 0.39373 0.10716 0.58791 0.00000
H330 H 0.35899 0.15923 0.61530 0.00000
H331 H 0.52284 0.20077 0.52367 0.00000
H332 H 0.46925 0.15748 0.56225 0.00000
C333 C 0.40638 0.12924 0.60707 0.00000
C334 C 0.40882 0.16680 0.58987 0.00000
C335 C 0.38048 0.17620 0.59858 0.00000
C336 C 0.44153 0.19193 0.56516 0.00000
C337 C 0.50335 0.20781 0.53114 0.00000
C338 C 0.47147 0.18209 0.55387 0.00000
H339 H 0.42688 0.27905 0.51749 0.00000
H340 H 0.43205 0.29717 0.56009 0.00000
H341 H 0.36171 0.21760 0.58846 0.00000
H342 H 0.53009 0.26302 0.50383 0.00000
H343 H 0.48155 0.27957 0.51943 0.00000
C344 C 0.41458 0.27383 0.54350 0.00000
C345 C 0.41322 0.23655 0.56012 0.00000
C346 C 0.38240 0.21167 0.58281 0.00000
C347 C 0.44442 0.22815 0.55092 0.00000
C348 C 0.50740 0.24494 0.51873 0.00000
C349 C 0.47868 0.25480 0.52816 0.00000
H350 H 0.14782 0.72086 0.48276 0.00000
H351 H 0.13484 0.70277 0.44015 0.00000
H352 H 0.14410 0.78239 0.41186 0.00000
H353 H 0.26703 0.73679 0.49630 0.00000
H354 H 0.20194 0.72029 0.48075 0.00000
C355 C 0.14073 0.72611 0.45677 0.00000
C356 C 0.17665 0.76338 0.44014 0.00000
C357 C 0.17071 0.78829 0.41750 0.00000
C358 C 0.21624 0.77174 0.44931 0.00000
C359 C 0.26242 0.75488 0.48142 0.00000
C360 C 0.22385 0.74507 0.47203 0.00000
H361 H 0.29945 0.86545 0.38832 0.00000
H362 H 0.28657 0.89275 0.41237 0.00000
H363 H 0.19974 0.84075 0.38503 0.00000
H364 H 0.32203 0.79903 0.47647 0.00000
H365 H 0.31174 0.84236 0.43795 0.00000
C366 C 0.27711 0.87068 0.39320 0.00000
C367 C 0.24199 0.83312 0.41040 0.00000
C368 C 0.20426 0.82376 0.40173 0.00000
C369 C 0.24958 0.80796 0.43507 0.00000
C370 C 0.29551 0.79202 0.46902 0.00000
C371 C 0.28935 0.81776 0.44633 0.00000
H372 H 0.87118 0.26083 0.12958 0.00000
H373 H 0.84957 0.25095 0.08830 0.00000
H374 H 0.84695 0.17008 0.08689 0.00000
H375 H 0.77910 0.25058 0.20873 0.00000
H376 H 0.82174 0.25765 0.15824 0.00000
C377 C 0.86216 0.24170 0.10771 0.00000
C378 C 0.83075 0.20043 0.12223 0.00000
C379 C 0.82880 0.16744 0.10686 0.00000
C380 C 0.80413 0.19730 0.15244 0.00000
C381 C 0.77898 0.22756 0.19854 0.00000
C382 C 0.80410 0.23167 0.16849 0.00000
H383 H 0.71896 0.08261 0.17108 0.00000
H384 H 0.75422 0.07540 0.18609 0.00000
H385 H 0.79778 0.10502 0.10872 0.00000
H386 H 0.73621 0.18654 0.23595 0.00000
H387 H 0.73336 0.12967 0.20987 0.00000
C388 C 0.74351 0.08229 0.16307 0.00000
C389 C 0.77450 0.12409 0.14935 0.00000
C390 C 0.79950 0.12823 0.12037 0.00000
C391 C 0.77623 0.15839 0.16706 0.00000
C392 C 0.75276 0.18900 0.21452 0.00000
C393 C 0.75124 0.15533 0.19914 0.00000
H394 H 0.63774 0.89129 0.30420 0.00000
H395 H 0.59918 0.85687 0.28234 0.00000
H396 H 0.65140 0.82758 0.24351 0.00000
H397 H 0.61961 0.85144 0.42345 0.00000
H398 H 0.61730 0.86544 0.35869 0.00000
C399 C 0.62886 0.87019 0.28415 0.00000
C400 C 0.64030 0.83933 0.29674 0.00000
C401 C 0.65112 0.82117 0.27008 0.00000
C402 C 0.64000 0.83052 0.33678 0.00000
C403 C 0.62855 0.83985 0.40441 0.00000
C404 C 0.62703 0.84798 0.36599 0.00000
H405 H 0.65931 0.73811 0.35353 0.00000
H406 H 0.70371 0.76678 0.33739 0.00000
H407 H 0.66904 0.77878 0.26228 0.00000
H408 H 0.64537 0.80954 0.44258 0.00000
H409 H 0.66473 0.77875 0.39660 0.00000
C410 C 0.67484 0.75266 0.33035 0.00000
C411 C 0.66322 0.78369 0.31893 0.00000
C412 C 0.66227 0.79213 0.28144 0.00000
C413 C 0.65285 0.80302 0.34819 0.00000
C414 C 0.64347 0.81420 0.41588 0.00000
C415 C 0.65511 0.79611 0.38859 0.00000
H416 H 0.70971 0.94435 0.83729 0.00000
H417 H 0.70015 0.94889 0.88140 0.00000
H418 H 0.62256 0.86760 0.87738 0.00000
H419 H 0.80938 0.92194 0.84472 0.00000
H420 H 0.75958 0.93869 0.85142 0.00000
C421 C 0.68905 0.93238 0.85776 0.00000
C422 C 0.68074 0.89005 0.86604 0.00000
C423 C 0.64347 0.86129 0.87565 0.00000
C424 C 0.71253 0.88127 0.86291 0.00000
C425 C 0.78258 0.90156 0.85017 0.00000
C426 C 0.75306 0.91147 0.85433 0.00000
H427 H 0.67837 0.76969 0.90002 0.00000
H428 H 0.64871 0.75382 0.86367 0.00000
H429 H 0.60871 0.80114 0.89096 0.00000
H430 H 0.79368 0.85420 0.85007 0.00000
H431 H 0.72919 0.80443 0.86597 0.00000
C432 C 0.65442 0.76877 0.88838 0.00000
C433 C 0.66394 0.81145 0.87986 0.00000
C434 C 0.63500 0.82109 0.88335 0.00000
C435 C 0.70367 0.84089 0.86884 0.00000
C436 C 0.77327 0.86095 0.85395 0.00000
C437 C 0.73498 0.83144 0.86321 0.00000
H438 H 0.85439 0.59567 0.06532 0.00000
H439 H 0.85886 0.62194 0.10281 0.00000
H440 H 0.86166 0.68824 0.05168 0.00000
H441 H 0.73090 0.49847 0.07005 0.00000
H442 H 0.79559 0.55148 0.07898 0.00000
C443 C 0.85962 0.62234 0.07416 0.00000
C444 C 0.82639 0.62927 0.05918 0.00000
C445 C 0.83494 0.66646 0.04918 0.00000
C446 C 0.78665 0.59606 0.05538 0.00000
C447 C 0.73764 0.52470 0.06181 0.00000
C448 C 0.77594 0.55619 0.06725 0.00000
H449 H 0.70816 0.63204 0.02723 0.00000
H450 H 0.73104 0.64595 0.98666 0.00000
H451 H 0.81018 0.70014 0.02856 0.00000
H452 H 0.68186 0.50898 0.03936 0.00000
H453 H 0.69680 0.57307 0.02147 0.00000
C454 C 0.73403 0.65108 0.01489 0.00000
C455 C 0.76641 0.64291 0.02996 0.00000
C456 C 0.80401 0.67356 0.03476 0.00000
C457 C 0.75631 0.60284 0.03937 0.00000
C458 C 0.70800 0.53111 0.04390 0.00000
C459 C 0.71696 0.56910 0.03314 0.00000
H460 H 0.14507 0.39227 0.59462 0.00000
H461 H 0.11971 0.34523 0.60385 0.00000
H462 H 0.14103 0.32631 0.52436 0.00000
H463 H 0.25011 0.43525 0.66786 0.00000
H464 H 0.18883 0.40298 0.63621 0.00000
C465 C 0.13445 0.36521 0.58325 0.00000
C466 C 0.16953 0.36044 0.56993 0.00000
C467 C 0.16569 0.33871 0.53820 0.00000
C468 C 0.20630 0.37962 0.59099 0.00000
C469 C 0.24744 0.42096 0.64461 0.00000
C470 C 0.21108 0.40166 0.62590 0.00000
H471 H 0.28414 0.34685 0.55190 0.00000
H472 H 0.28626 0.37015 0.51287 0.00000
H473 H 0.19527 0.31790 0.50303 0.00000
H474 H 0.30647 0.43399 0.64195 0.00000
H475 H 0.30003 0.39708 0.58678 0.00000
C476 C 0.26832 0.34691 0.52937 0.00000
C477 C 0.23396 0.35241 0.54360 0.00000
C478 C 0.19857 0.33407 0.52504 0.00000
C479 C 0.23956 0.37652 0.57688 0.00000
C480 C 0.28117 0.41971 0.62935 0.00000
C481 C 0.27735 0.39796 0.59654 0.00000
H482 H 0.73858 0.13696 0.71321 0.00000
H483 H 0.75416 0.14906 0.75668 0.00000
H484 H 0.83001 0.14567 0.73704 0.00000
H485 H 0.75147 0.24667 0.66441 0.00000
H486 H 0.74462 0.19301 0.70080 0.00000
C487 C 0.75950 0.13993 0.73172 0.00000
C488 C 0.80029 0.17195 0.71676 0.00000
C489 C 0.83272 0.16821 0.72310 0.00000
C490 C 0.80350 0.20526 0.69564 0.00000
C491 C 0.77391 0.24294 0.66794 0.00000
C492 C 0.76995 0.21124 0.68965 0.00000
H493 H 0.91863 0.28733 0.67403 0.00000
H494 H 0.91985 0.25445 0.64661 0.00000
H495 H 0.89437 0.19556 0.71436 0.00000
H496 H 0.81365 0.29147 0.63488 0.00000
H497 H 0.86945 0.28460 0.64525 0.00000
C498 C 0.91681 0.26073 0.67377 0.00000
C499 C 0.87551 0.22935 0.68824 0.00000
C500 C 0.87144 0.19802 0.70899 0.00000
C501 C 0.84167 0.23391 0.68010 0.00000
C502 C 0.81143 0.27021 0.65067 0.00000
C503 C 0.84444 0.26599 0.65670 0.00000
H504 H 0.36937 0.07821 0.35408 0.00000
H505 H 0.34818 0.08389 0.31674 0.00000
H506 H 0.29913 0.10818 0.36822 0.00000
H507 H 0.49103 0.17890 0.34869 0.00000
H508 H 0.42570 0.12699 0.34012 0.00000
C509 C 0.34776 0.08324 0.34539 0.00000
C510 C 0.35653 0.12403 0.36036 0.00000
C511 C 0.32602 0.12967 0.37057 0.00000
C512 C 0.39712 0.15564 0.36394 0.00000
C513 C 0.46922 0.18206 0.35707 0.00000
C514 C 0.43047 0.15138 0.35185 0.00000
H515 H 0.40354 0.26007 0.39219 0.00000
H516 H 0.38424 0.23982 0.43286 0.00000
H517 H 0.31188 0.17185 0.39134 0.00000
H518 H 0.50383 0.23923 0.37937 0.00000
H519 H 0.45116 0.24869 0.39762 0.00000
C520 C 0.37909 0.23847 0.40466 0.00000
C521 C 0.37156 0.19813 0.38959 0.00000
C522 C 0.33372 0.16790 0.38499 0.00000
C523 C 0.40482 0.19308 0.37995 0.00000
C524 C 0.47691 0.21854 0.37499 0.00000
C525 C 0.44565 0.22404 0.38595 0.00000
H526 H 0.05210 0.73320 0.22301 0.00000
H527 H 0.07500 0.71160 0.20558 0.00000
H528 H 0.13337 0.78881 0.16295 0.00000
H529 H 0.08530 0.74927 0.34414 0.00000
H530 H 0.07056 0.73200 0.27964 0.00000
C531 C 0.07300 0.73632 0.20438 0.00000
C532 C 0.11302 0.77190 0.21659 0.00000
C533 C 0.13963 0.79497 0.18954 0.00000
C534 C 0.12153 0.78071 0.25663 0.00000
C535 C 0.10326 0.76616 0.32468 0.00000
C536 C 0.09466 0.75587 0.28643 0.00000
H537 H 0.23539 0.86862 0.27373 0.00000
H538 H 0.22308 0.89810 0.25298 0.00000
H539 H 0.19648 0.84448 0.18117 0.00000
H540 H 0.14414 0.80941 0.36181 0.00000
H541 H 0.18974 0.84962 0.31508 0.00000
C542 C 0.22654 0.87446 0.24893 0.00000
C543 C 0.18620 0.83863 0.23790 0.00000
C544 C 0.17747 0.82885 0.20051 0.00000
C545 C 0.15837 0.81547 0.26746 0.00000
C546 C 0.13892 0.80199 0.33533 0.00000
C547 C 0.16584 0.82589 0.30758 0.00000
H548 H 0.91781 0.64312 0.51195 0.00000
H549 H 0.92901 0.68905 0.51578 0.00000
H550 H 0.89421 0.68551 0.43540 0.00000
H551 H 0.81828 0.58014 0.59136 0.00000
H552 H 0.87408 0.62362 0.55530 0.00000
C553 C 0.91903 0.66602 0.49768 0.00000
C554 C 0.87688 0.65472 0.48475 0.00000
C555 C 0.87157 0.66858 0.45095 0.00000
C556 C 0.84341 0.62901 0.50841 0.00000
C557 C 0.81485 0.58902 0.56676 0.00000
C558 C 0.84790 0.61494 0.54542 0.00000
H559 H 0.74099 0.61938 0.46800 0.00000
H560 H 0.74580 0.59640 0.43166 0.00000
H561 H 0.82860 0.66872 0.41458 0.00000
H562 H 0.75279 0.55664 0.56675 0.00000
H563 H 0.74363 0.58001 0.50809 0.00000
C564 C 0.75798 0.62259 0.44529 0.00000
C565 C 0.79964 0.63318 0.45922 0.00000
C566 C 0.83197 0.65804 0.43815 0.00000
C567 C 0.80392 0.61706 0.49483 0.00000
C568 C 0.77548 0.57536 0.55223 0.00000
C569 C 0.77011 0.58911 0.51736 0.00000
H570 H 0.09711 0.77316 0.58342 0.00000
H571 H 0.09671 0.76146 0.62785 0.00000
H572 H 0.18786 0.79707 0.62586 0.00000
H573 H 0.07303 0.87189 0.58744 0.00000
H574 H 0.08077 0.81635 0.59587 0.00000
C575 C 0.11383 0.77186 0.60447 0.00000
C576 C 0.14807 0.81406 0.61277 0.00000
C577 C 0.18407 0.81958 0.62342 0.00000
C578 C 0.14171 0.84734 0.60855 0.00000
C579 C 0.09872 0.87550 0.59364 0.00000
C580 C 0.10332 0.84259 0.59882 0.00000
H581 H 0.23662 0.94978 0.64607 0.00000
H582 H 0.26105 0.94570 0.61061 0.00000
H583 H 0.24195 0.86275 0.63949 0.00000
H584 H 0.12898 0.93757 0.59289 0.00000
H585 H 0.19128 0.94712 0.61059 0.00000
C586 C 0.24724 0.93312 0.63522 0.00000
C587 C 0.21226 0.89141 0.62665 0.00000
C588 C 0.21683 0.85924 0.63114 0.00000
C589 C 0.17480 0.88691 0.61451 0.00000
C590 C 0.13221 0.91497 0.59748 0.00000
C591 C 0.16917 0.92058 0.60781 0.00000
H592 H 0.39933 0.13794 0.78550 0.00000
H593 H 0.39361 0.14855 0.74211 0.00000
H594 H 0.31484 0.14468 0.76488 0.00000
H595 H 0.49740 0.24969 0.82948 0.00000
H596 H 0.44938 0.19465 0.79545 0.00000
C597 C 0.38034 0.14005 0.76769 0.00000
C598 C 0.37174 0.17217 0.78270 0.00000
C599 C 0.33511 0.16776 0.77783 0.00000
C600 C 0.40253 0.20631 0.80233 0.00000
C601 C 0.47095 0.24550 0.82703 0.00000
C602 C 0.44249 0.21298 0.80670 0.00000
H603 H 0.36903 0.28796 0.82450 0.00000
H604 H 0.33650 0.25570 0.85352 0.00000
H605 H 0.30058 0.19469 0.78767 0.00000
H606 H 0.48062 0.29482 0.85928 0.00000
H607 H 0.41717 0.28680 0.85144 0.00000
C608 C 0.34450 0.26122 0.82596 0.00000
C609 C 0.35428 0.22977 0.81139 0.00000
C610 C 0.32635 0.19765 0.79201 0.00000
C611 C 0.39325 0.23509 0.81797 0.00000
C612 C 0.46104 0.27296 0.84444 0.00000
C613 C 0.42335 0.26806 0.83992 0.00000
H614 H 0.24605 0.34406 0.96579 0.00000
H615 H 0.25758 0.39015 0.96302 0.00000
H616 H 0.18309 0.36654 0.91350 0.00000
H617 H 0.20703 0.31168 0.08445 0.00000
H618 H 0.23365 0.34040 0.02501 0.00000
C619 C 0.23903 0.36278 0.95307 0.00000
C620 C 0.19629 0.35120 0.96411 0.00000
C621 C 0.17281 0.35587 0.93839 0.00000
C622 C 0.18147 0.33492 0.00147 0.00000
C623 C 0.19029 0.31384 0.06551 0.00000
C624 C 0.20608 0.33102 0.03032 0.00000
H625 H 0.07257 0.32202 0.02066 0.00000
H626 H 0.05620 0.28833 0.98770 0.00000
H627 H 0.11618 0.34911 0.93009 0.00000
H628 H 0.13810 0.28645 0.09782 0.00000
H629 H 0.09738 0.29386 0.05315 0.00000
C630 C 0.07408 0.31740 0.99274 0.00000
C631 C 0.11697 0.32861 0.98279 0.00000
C632 C 0.13229 0.34486 0.94821 0.00000
C633 C 0.14061 0.32228 0.01058 0.00000
C634 C 0.14901 0.29921 0.07377 0.00000
C635 C 0.12486 0.30346 0.04718 0.00000
H636 H 0.89423 0.51596 0.14038 0.00000
H637 H 0.90989 0.54068 0.10089 0.00000
H638 H 0.97498 0.51730 0.09477 0.00000
H639 H 0.78059 0.41199 0.10886 0.00000
H640 H 0.83967 0.47267 0.11620 0.00000
C641 C 0.91589 0.52587 0.12082 0.00000
C642 C 0.91566 0.49006 0.10190 0.00000
C643 C 0.95045 0.49288 0.09085 0.00000
C644 C 0.87851 0.45367 0.09667 0.00000
C645 C 0.80555 0.41395 0.10241 0.00000
C646 C 0.84059 0.44995 0.10657 0.00000
H647 H 0.89272 0.37352 0.03426 0.00000
H648 H 0.91798 0.37124 0.06994 0.00000
H649 H 0.97555 0.46189 0.06465 0.00000
H650 H 0.78212 0.35451 0.08663 0.00000
H651 H 0.84226 0.35921 0.06820 0.00000
C652 C 0.91761 0.38913 0.04948 0.00000
C653 C 0.91658 0.42426 0.06852 0.00000
C654 C 0.95085 0.45930 0.07315 0.00000
C655 C 0.87912 0.41973 0.08069 0.00000
C656 C 0.80640 0.37955 0.08850 0.00000
C657 C 0.84210 0.38235 0.07776 0.00000
H658 H 0.38599 0.95262 0.26586 0.00000
H659 H 0.41879 0.97676 0.29853 0.00000
H660 H 0.44549 0.91397 0.29658 0.00000
H661 H 0.43390 0.02749 0.16402 0.00000
H662 H 0.41548 0.99765 0.22438 0.00000
C663 C 0.40567 0.95145 0.28343 0.00000
C664 C 0.43737 0.94883 0.25935 0.00000
C665 C 0.45372 0.92730 0.27234 0.00000
C666 C 0.44891 0.96879 0.22295 0.00000
C667 C 0.44419 0.01101 0.17294 0.00000
C668 C 0.43344 0.99345 0.20879 0.00000
H669 H 0.54238 0.96380 0.17724 0.00000
H670 H 0.51274 0.91646 0.17290 0.00000
H671 H 0.49555 0.90970 0.25974 0.00000
H672 H 0.47710 0.01609 0.12389 0.00000
H673 H 0.50475 0.97833 0.14604 0.00000
C674 C 0.52630 0.93859 0.19188 0.00000
C675 C 0.49450 0.94191 0.21510 0.00000
C676 C 0.48351 0.92428 0.24990 0.00000
C677 C 0.47718 0.96426 0.19986 0.00000
C678 C 0.47062 0.00465 0.14905 0.00000
C679 C 0.48685 0.98211 0.16216 0.00000
H680 H 0.56873 0.59847 0.94532 0.00000
H681 H 0.54432 0.57575 0.98340 0.00000
H682 H 0.46789 0.56944 0.94944 0.00000
H683 H 0.58960 0.51039 0.88776 0.00000
H684 H 0.57697 0.55089 0.92813 0.00000
C685 C 0.54272 0.58817 0.95883 0.00000
C686 C 0.50973 0.55603 0.93391 0.00000
C687 C 0.47305 0.55218 0.93381 0.00000
C688 C 0.51833 0.53077 0.91048 0.00000
C689 C 0.56419 0.50892 0.88694 0.00000
C690 C 0.55658 0.53278 0.91098 0.00000
H691 H 0.41852 0.44292 0.86069 0.00000
H692 H 0.41694 0.47743 0.83625 0.00000
H693 H 0.41546 0.51909 0.91106 0.00000
H694 H 0.54008 0.46636 0.84356 0.00000
H695 H 0.47699 0.46023 0.84290 0.00000
C696 C 0.41497 0.46663 0.86269 0.00000
C697 C 0.44876 0.49841 0.88719 0.00000
C698 C 0.44158 0.52217 0.91029 0.00000
C699 C 0.48755 0.50217 0.88577 0.00000
C700 C 0.53423 0.48203 0.86078 0.00000
C701 C 0.49689 0.47856 0.86030 0.00000
H702 H 0.06579 0.44086 0.59593 0.00000
H703 H 0.02601 0.43535 0.61637 0.00000
H704 H 0.06862 0.52525 0.63455 0.00000
H705 H 0.03576 0.42585 0.47403 0.00000
H706 H 0.03980 0.42776 0.54087 0.00000
C707 C 0.05483 0.45469 0.61162 0.00000
C708 C 0.05831 0.49004 0.58869 0.00000
C709 C 0.06574 0.52375 0.60721 0.00000
C710 C 0.05425 0.48716 0.54770 0.00000
C711 C 0.04241 0.45001 0.48736 0.00000
C712 C 0.04464 0.45115 0.52700 0.00000
H713 H 0.05247 0.58256 0.50257 0.00000
H714 H 0.09828 0.60877 0.51604 0.00000
H715 H 0.07376 0.58095 0.59949 0.00000
H716 H 0.04943 0.48408 0.43868 0.00000
H717 H 0.06298 0.54250 0.47062 0.00000
C718 C 0.07029 0.59228 0.52544 0.00000
C719 C 0.06662 0.55629 0.54733 0.00000
C720 C 0.06937 0.55753 0.58603 0.00000
C721 C 0.05969 0.52141 0.52650 0.00000
C722 C 0.05004 0.48483 0.46614 0.00000
C723 C 0.05824 0.51950 0.48511 0.00000
H724 H 0.63382 0.09168 0.77030 0.00000
H725 H 0.60870 0.04389 0.76559 0.00000
H726 H 0.53334 0.04281 0.79574 0.00000
H727 H 0.65366 0.13564 0.65240 0.00000
H728 H 0.64134 0.10179 0.71067 0.00000
C729 C 0.60769 0.06745 0.77590 0.00000
C730 C 0.57475 0.07088 0.75497 0.00000
C731 C 0.53835 0.05573 0.77129 0.00000
C732 C 0.58313 0.09071 0.71851 0.00000
C733 C 0.62847 0.12603 0.66489 0.00000
C734 C 0.62105 0.10579 0.69936 0.00000
H735 H 0.48332 0.07990 0.66982 0.00000
H736 H 0.48274 0.10731 0.70432 0.00000
H737 H 0.48101 0.04730 0.76348 0.00000
H738 H 0.60440 0.14762 0.62444 0.00000
H739 H 0.54180 0.12210 0.65297 0.00000
C740 C 0.48021 0.08095 0.69811 0.00000
C741 C 0.51394 0.07815 0.71812 0.00000
C742 C 0.50695 0.05890 0.75208 0.00000
C743 C 0.55245 0.09547 0.70026 0.00000
C744 C 0.59865 0.13271 0.64780 0.00000
C745 C 0.56162 0.11771 0.66484 0.00000
H746 H 0.48645 0.39360 0.49077 0.00000
H747 H 0.47504 0.37030 0.45033 0.00000
H748 H 0.47889 0.44328 0.41065 0.00000
H749 H 0.60856 0.42032 0.51157 0.00000
H750 H 0.54261 0.39737 0.49336 0.00000
C751 C 0.47908 0.39491 0.46362 0.00000
C752 C 0.51367 0.43132 0.44432 0.00000
C753 C 0.50593 0.45178 0.41751 0.00000
C754 C 0.55391 0.44366 0.45537 0.00000
C755 C 0.60260 0.43534 0.49363 0.00000
C756 C 0.56353 0.42168 0.48267 0.00000
H757 H 0.63381 0.53233 0.38724 0.00000
H758 H 0.61797 0.56001 0.40572 0.00000
H759 H 0.53243 0.50014 0.37958 0.00000
H760 H 0.66103 0.48164 0.48677 0.00000
H761 H 0.64758 0.51734 0.44101 0.00000
C762 C 0.61018 0.53600 0.38941 0.00000
C763 C 0.57643 0.49946 0.40939 0.00000
C764 C 0.53818 0.48638 0.39914 0.00000
C765 C 0.58587 0.47914 0.43837 0.00000
C766 C 0.63420 0.47188 0.47829 0.00000
C767 C 0.62616 0.49311 0.45129 0.00000
H768 H 0.99258 0.39988 0.73425 0.00000
H769 H 0.98638 0.35555 0.73647 0.00000
H770 H 0.04067 0.37927 0.80770 0.00000
H771 H 0.87756 0.38415 0.77015 0.00000
H772 H 0.93278 0.38069 0.74852 0.00000
C773 C 0.00175 0.38302 0.74740 0.00000
C774 C 0.99228 0.38123 0.79026 0.00000
C775 C 0.01730 0.37952 0.81626 0.00000
C776 C 0.95724 0.38201 0.80236 0.00000
C777 C 0.89624 0.38436 0.78828 0.00000
C778 C 0.92890 0.38213 0.77551 0.00000
H779 H 0.93894 0.36316 0.91661 0.00000
H780 H 0.97905 0.40553 0.92236 0.00000
H781 H 0.02642 0.37596 0.87502 0.00000
H782 H 0.86812 0.38958 0.83704 0.00000
H783 H 0.91171 0.38735 0.88188 0.00000
C784 C 0.96835 0.37779 0.91252 0.00000
C785 C 0.97677 0.37964 0.86941 0.00000
C786 C 0.00899 0.37806 0.85687 0.00000
C787 C 0.94998 0.38242 0.84279 0.00000
C788 C 0.89024 0.38702 0.82850 0.00000
C789 C 0.91621 0.38588 0.85505 0.00000
H790 H 0.60964 0.04266 0.91268 0.00000
H791 H 0.59081 0.99554 0.90529 0.00000
H792 H 0.64975 0.99327 0.96324 0.00000
H793 H 0.51735 0.05059 0.97747 0.00000
H794 H 0.55763 0.03557 0.93934 0.00000
C795 C 0.61306 0.01929 0.91819 0.00000
C796 C 0.60991 0.01201 0.96157 0.00000
C797 C 0.63225 0.99842 0.97849 0.00000
C798 C 0.58371 0.02030 0.98384 0.00000
C799 C 0.53436 0.04231 0.98926 0.00000
C800 C 0.55812 0.03321 0.96668 0.00000
H801 H 0.57632 0.98359 0.09377 0.00000
H802 H 0.62241 0.01775 0.09811 0.00000
H803 H 0.64514 0.98113 0.03104 0.00000
H804 H 0.51930 0.04675 0.04566 0.00000
H805 H 0.55840 0.02398 0.07492 0.00000
C806 C 0.60390 0.99222 0.08480 0.00000
C807 C 0.60621 0.99990 0.04151 0.00000
C808 C 0.62986 0.99160 0.01945 0.00000
C809 C 0.58273 0.01526 0.02479 0.00000
C810 C 0.53508 0.03942 0.03021 0.00000
C811 C 0.55842 0.02609 0.04753 0.00000
H812 H 0.67379 0.62691 0.25330 0.00000
H813 H 0.64250 0.58036 0.24603 0.00000
H814 H 0.58500 0.60234 0.20624 0.00000
H815 H 0.77096 0.65318 0.17369 0.00000
H816 H 0.71634 0.62759 0.21512 0.00000
C817 C 0.64628 0.60780 0.24427 0.00000
C818 C 0.64241 0.61682 0.20221 0.00000
C819 C 0.60728 0.61171 0.18916 0.00000
C820 C 0.67635 0.63119 0.17728 0.00000
C821 C 0.74634 0.65077 0.16518 0.00000
C822 C 0.71387 0.63544 0.18965 0.00000
H823 H 0.64697 0.63746 0.06711 0.00000
H824 H 0.63877 0.67243 0.08094 0.00000
H825 H 0.57787 0.61576 0.14041 0.00000
H826 H 0.76623 0.67463 0.11074 0.00000
H827 H 0.70578 0.66649 0.08843 0.00000
C828 C 0.62956 0.64341 0.08360 0.00000
C829 C 0.63465 0.63474 0.12546 0.00000
C830 C 0.60312 0.62031 0.14959 0.00000
C831 C 0.67271 0.64148 0.13842 0.00000
C832 C 0.74333 0.66311 0.12715 0.00000
C833 C 0.70752 0.65843 0.11403 0.00000
H834 H 0.98634 0.62915 0.43418 0.00000
H835 H 0.02568 0.66969 0.42125 0.00000
H836 H 0.04256 0.62369 0.35881 0.00000
H837 H 0.88828 0.64502 0.39430 0.00000
H838 H 0.94730 0.64865 0.41503 0.00000
C839 C 0.01045 0.64016 0.41751 0.00000
C840 C 0.99716 0.63124 0.37555 0.00000
C841 C 0.01891 0.62343 0.35032 0.00000
C842 C 0.96140 0.63067 0.36363 0.00000
C843 C 0.90317 0.63818 0.37706 0.00000
C844 C 0.93827 0.64049 0.38925 0.00000
H845 H 0.94701 0.61910 0.24846 0.00000
H846 H 0.94068 0.57495 0.25363 0.00000
H847 H 0.02278 0.61008 0.29280 0.00000
H848 H 0.86414 0.62307 0.33087 0.00000
H849 H 0.90131 0.60890 0.28753 0.00000
C850 C 0.96045 0.60398 0.25630 0.00000
C851 C 0.97272 0.61301 0.29850 0.00000
C852 C 0.00670 0.61470 0.31063 0.00000
C853 C 0.94829 0.62018 0.32457 0.00000
C854 C 0.88897 0.62556 0.33877 0.00000
C855 C 0.91095 0.61699 0.31316 0.00000
H856 H 0.32607 0.37157 0.75363 0.00000
H857 H 0.35587 0.41837 0.74595 0.00000
H858 H 0.41528 0.39917 0.70595 0.00000
H859 H 0.22730 0.34083 0.67470 0.00000
H860 H 0.28230 0.36865 0.71569 0.00000
C861 C 0.35324 0.39140 0.74435 0.00000
C862 C 0.35724 0.38240 0.70232 0.00000
C863 C 0.39280 0.38886 0.68904 0.00000
C864 C 0.32300 0.36661 0.67765 0.00000
C865 C 0.25227 0.34422 0.66604 0.00000
C866 C 0.28496 0.36088 0.69025 0.00000
H867 H 0.35237 0.36087 0.56735 0.00000
H868 H 0.36245 0.32720 0.58131 0.00000
H869 H 0.42261 0.38581 0.64015 0.00000
H870 H 0.23256 0.31956 0.61183 0.00000
H871 H 0.29377 0.33004 0.58915 0.00000
C872 C 0.37057 0.35599 0.58378 0.00000
C873 C 0.36534 0.36458 0.62561 0.00000
C874 C 0.39710 0.38031 0.64950 0.00000
C875 C 0.32685 0.35640 0.63882 0.00000
C876 C 0.25558 0.33199 0.62806 0.00000
C877 C 0.29185 0.33806 0.61471 0.00000
H878 H 0.34725 0.99784 0.40316 0.00000
H879 H 0.32691 0.95226 0.41756 0.00000
H880 H 0.39851 0.97430 0.47084 0.00000
H881 H 0.27424 0.04180 0.45578 0.00000
H882 H 0.30357 0.00730 0.42928 0.00000
C883 C 0.35181 0.97884 0.41863 0.00000
C884 C 0.35962 0.99312 0.46036 0.00000
C885 C 0.38542 0.98739 0.48181 0.00000
C886 C 0.33991 0.01300 0.47602 0.00000
C887 C 0.29362 0.03881 0.47021 0.00000
C888 C 0.31090 0.01820 0.45461 0.00000
H889 H 0.36019 0.03244 0.59000 0.00000
H890 H 0.40605 0.06299 0.57913 0.00000
H891 H 0.41101 0.99591 0.53642 0.00000
H892 H 0.29324 0.07081 0.51806 0.00000
H893 H 0.33832 0.06154 0.55484 0.00000
C894 C 0.38466 0.03435 0.57855 0.00000
C895 C 0.37607 0.02052 0.53671 0.00000
C896 C 0.39337 0.00010 0.52120 0.00000
C897 C 0.34922 0.02804 0.51462 0.00000
C898 C 0.30459 0.05572 0.50787 0.00000
C899 C 0.33146 0.05036 0.52957 0.00000
loop_
_geom_bond_atom_site_label_1
_geom_bond_atom_site_label_2
_geom_bond_distance
_geom_bond_site_symmetry_2
_ccdc_geom_bond_type
O0 Zn3 2.062 . S
O0 C15 1.265 . A
O1 Zn2 1.961 1_656 S
O1 C15 1.292 . A
Zn2 O4 2.038 1_455 S
Zn2 O10 2.174 1_455 S
Zn2 O14 2.069 . S
Zn3 O4 2.099 1_556 S
Zn3 O13 2.024 1_655 S
Zn3 O18 2.138 . S
O4 Zn5 1.953 . S
O4 H17 0.992 . S
Zn5 O7 1.967 . S
Zn5 O9 1.951 . S
Zn5 O19 1.961 1_554 S
C6 O9 1.283 . A
C6 O10 1.233 . A
O7 C16 1.248 . S
C8 O18 1.243 . A
C8 O19 1.269 . A
O11 C16 1.210 . D
C12 O13 1.217 . A
C12 O14 1.238 1_556 A
O20 Zn23 2.062 . S
O20 C35 1.265 . A
O21 Zn22 1.961 1_565 S
O21 C35 1.292 . A
Zn22 O24 2.038 1_545 S
Zn22 O30 2.174 1_545 S
Zn22 O34 2.069 . S
Zn23 O24 2.099 . S
Zn23 O33 2.024 1_565 S
Zn23 O38 2.138 . S
O24 Zn25 1.953 . S
O24 H37 0.992 . S
Zn25 O27 1.967 . S
Zn25 O29 1.951 . S
Zn25 O39 1.961 . S
C26 O29 1.283 . A
C26 O30 1.233 . A
O27 C36 1.248 . S
C28 O38 1.243 . A
C28 O39 1.269 . A
O31 C36 1.210 . D
C32 O33 1.217 . A
C32 O34 1.238 . A
O40 Zn43 2.062 . S
O40 C55 1.265 . A
O41 Zn42 1.961 1_554 S
O41 C55 1.292 . A
Zn42 O44 2.038 . S
Zn42 O50 2.174 . S
Zn42 O54 2.069 . S
Zn43 O44 2.099 1_554 S
Zn43 O53 2.024 . S
Zn43 O58 2.138 . S
O44 Zn45 1.953 . S
O44 H57 0.992 . S
Zn45 O47 1.967 . S
Zn45 O49 1.951 . S
Zn45 O59 1.961 1_556 S
C46 O49 1.283 . A
C46 O50 1.233 . A
O47 C56 1.248 . S
C48 O58 1.243 . A
C48 O59 1.269 . A
O51 C56 1.210 . D
C52 O53 1.217 . A
C52 O54 1.238 1_554 A
O60 Zn63 2.062 . S
O60 C75 1.265 . A
O61 Zn62 1.961 1_655 S
O61 C75 1.292 . A
Zn62 O64 2.038 1_455 S
Zn62 O70 2.174 1_455 S
Zn62 O74 2.069 . S
Zn63 O64 2.099 . S
Zn63 O73 2.024 1_655 S
Zn63 O78 2.138 . S
O64 Zn65 1.953 . S
O64 H77 0.992 . S
Zn65 O67 1.967 . S
Zn65 O69 1.951 . S
Zn65 O79 1.961 . S
C66 O69 1.283 . A
C66 O70 1.233 . A
O67 C76 1.248 . S
C68 O78 1.243 . A
C68 O79 1.269 . A
O71 C76 1.210 . D
C72 O73 1.217 . A
C72 O74 1.238 . A
O80 Zn83 2.062 . S
O80 C95 1.265 . A
O81 Zn82 1.961 1_455 S
O81 C95 1.292 . A
Zn82 O84 2.038 1_655 S
Zn82 O90 2.174 1_655 S
Zn82 O94 2.069 . S
Zn83 O84 2.099 . S
Zn83 O93 2.024 1_455 S
Zn83 O98 2.138 . S
O84 Zn85 1.953 . S
O84 H97 0.992 . S
Zn85 O87 1.967 . S
Zn85 O89 1.951 . S
Zn85 O99 1.961 . S
C86 O89 1.283 . A
C86 O90 1.233 . A
O87 C96 1.248 . S
C88 O98 1.243 . A
C88 O99 1.269 . A
O91 C96 1.210 . D
C92 O93 1.217 . A
C92 O94 1.238 . A
O100 Zn103 2.062 . S
O100 C115 1.265 . A
O101 Zn102 1.961 1_545 S
O101 C115 1.292 . A
Zn102 O104 2.038 1_565 S
Zn102 O110 2.174 1_565 S
Zn102 O114 2.069 . S
Zn103 O104 2.099 . S
Zn103 O113 2.024 1_545 S
Zn103 O118 2.138 . S
O104 Zn105 1.953 . S
O104 H117 0.992 . S
Zn105 O107 1.967 . S
Zn105 O109 1.951 . S
Zn105 O119 1.961 . S
C106 O109 1.283 . A
C106 O110 1.233 . A
O107 C116 1.248 . S
C108 O118 1.243 . A
C108 O119 1.269 . A
O111 C116 1.210 . D
C112 O113 1.217 . A
C112 O114 1.238 . A
O120 Zn123 2.062 . S
O120 C135 1.265 . A
O121 Zn122 1.961 . S
O121 C135 1.292 . A
Zn122 O124 2.038 . S
Zn122 O130 2.174 . S
Zn122 O134 2.069 . S
Zn123 O124 2.099 . S
Zn123 O133 2.024 . S
Zn123 O138 2.138 . S
O124 Zn125 1.953 . S
O124 H137 0.992 . S
Zn125 O127 1.967 . S
Zn125 O129 1.951 . S
Zn125 O139 1.961 . S
C126 O129 1.283 . A
C126 O130 1.233 . A
O127 C136 1.248 . S
C128 O138 1.243 . A
C128 O139 1.269 . A
O131 C136 1.210 . D
C132 O133 1.217 . A
C132 O134 1.238 . A
O140 Zn143 2.062 . S
O140 C155 1.265 . A
O141 Zn142 1.961 1_565 S
O141 C155 1.292 . A
Zn142 O144 2.038 1_545 S
Zn142 O150 2.174 1_545 S
Zn142 O154 2.069 . S
Zn143 O144 2.099 . S
Zn143 O153 2.024 1_565 S
Zn143 O158 2.138 . S
O144 Zn145 1.953 . S
O144 H157 0.992 . S
Zn145 O147 1.967 . S
Zn145 O149 1.951 . S
Zn145 O159 1.961 . S
C146 O149 1.283 . A
C146 O150 1.233 . A
O147 C156 1.248 . S
C148 O158 1.243 . A
C148 O159 1.269 . A
O151 C156 1.210 . D
C152 O153 1.217 . A
C152 O154 1.238 . A
O160 Zn163 2.062 . S
O160 C175 1.265 . A
O161 Zn162 1.961 . S
O161 C175 1.292 . A
Zn162 O164 2.038 . S
Zn162 O170 2.174 . S
Zn162 O174 2.069 . S
Zn163 O164 2.099 . S
Zn163 O173 2.024 . S
Zn163 O178 2.138 . S
O164 Zn165 1.953 . S
O164 H177 0.992 . S
Zn165 O167 1.967 . S
Zn165 O169 1.951 . S
Zn165 O179 1.961 . S
C166 O169 1.283 . A
C166 O170 1.233 . A
O167 C176 1.248 . S
C168 O178 1.243 . A
C168 O179 1.269 . A
O171 C176 1.210 . D
C172 O173 1.217 . A
C172 O174 1.238 . A
O180 Zn183 2.062 . S
O180 C195 1.265 . A
O181 Zn182 1.961 1_455 S
O181 C195 1.292 . A
Zn182 O184 2.038 1_655 S
Zn182 O190 2.174 1_655 S
Zn182 O194 2.069 . S
Zn183 O184 2.099 . S
Zn183 O193 2.024 1_455 S
Zn183 O198 2.138 . S
O184 Zn185 1.953 . S
O184 H197 0.992 . S
Zn185 O187 1.967 . S
Zn185 O189 1.951 . S
Zn185 O199 1.961 . S
C186 O189 1.283 . A
C186 O190 1.233 . A
O187 C196 1.248 . S
C188 O198 1.243 . A
C188 O199 1.269 . A
O191 C196 1.210 . D
C192 O193 1.217 . A
C192 O194 1.238 . A
O200 Zn203 2.062 . S
O200 C215 1.265 . A
O201 Zn202 1.961 1_545 S
O201 C215 1.292 . A
Zn202 O204 2.038 1_565 S
Zn202 O210 2.174 1_565 S
Zn202 O214 2.069 . S
Zn203 O204 2.099 . S
Zn203 O213 2.024 1_545 S
Zn203 O218 2.138 . S
O204 Zn205 1.953 . S
O204 H217 0.992 . S
Zn205 O207 1.967 . S
Zn205 O209 1.951 . S
Zn205 O219 1.961 . S
C206 O209 1.283 . A
C206 O210 1.233 . A
O207 C216 1.248 . S
C208 O218 1.243 . A
C208 O219 1.269 . A
O211 C216 1.210 . D
C212 O213 1.217 . A
C212 O214 1.238 . A
O220 Zn223 2.062 . S
O220 C235 1.265 . A
O221 Zn222 1.961 . S
O221 C235 1.292 . A
Zn222 O224 2.038 . S
Zn222 O230 2.174 . S
Zn222 O234 2.069 . S
Zn223 O224 2.099 . S
Zn223 O233 2.024 . S
Zn223 O238 2.138 . S
O224 Zn225 1.953 . S
O224 H237 0.992 . S
Zn225 O227 1.967 . S
Zn225 O229 1.951 . S
Zn225 O239 1.961 . S
C226 O229 1.283 . A
C226 O230 1.233 . A
O227 C236 1.248 . S
C228 O238 1.243 . A
C228 O239 1.269 . A
O231 C236 1.210 . D
C232 O233 1.217 . A
C232 O234 1.238 . A
H240 C245 0.989 . S
H241 C245 0.991 . S
H242 C247 0.950 . S
H243 C249 0.950 . S
H244 C250 0.951 . S
C245 C246 1.520 . S
C246 C247 1.342 . A
C246 C248 1.424 . A
C247 C258 1.435 . A
C248 C250 1.433 . A
C248 C259 1.427 . A
C249 C250 1.373 . A
C249 C260 1.422 . A
H251 C256 0.989 . S
H252 C256 0.991 . S
H253 C258 0.950 . S
H254 C260 0.950 . S
H255 C261 0.951 . S
C256 C257 1.520 . S
C257 C258 1.342 . A
C257 C259 1.424 . A
C259 C261 1.433 . A
C260 C261 1.373 . A
H262 C267 0.989 . S
H263 C267 0.991 . S
H264 C269 0.950 . S
H265 C271 0.950 . S
H266 C272 0.951 . S
C267 C268 1.520 . S
C268 C269 1.342 . A
C268 C270 1.424 . A
C269 C280 1.435 . A
C270 C272 1.433 . A
C270 C281 1.427 . A
C271 C272 1.373 . A
C271 C282 1.422 . A
H273 C278 0.989 . S
H274 C278 0.991 . S
H275 C280 0.950 . S
H276 C282 0.950 . S
H277 C283 0.951 . S
C278 C279 1.520 . S
C279 C280 1.342 . A
C279 C281 1.424 . A
C281 C283 1.433 . A
C282 C283 1.373 . A
H284 C289 0.989 . S
H285 C289 0.991 . S
H286 C291 0.950 . S
H287 C293 0.950 . S
H288 C294 0.951 . S
C289 C290 1.520 . S
C290 C291 1.342 . A
C290 C292 1.424 . A
C291 C302 1.435 . A
C292 C294 1.433 . A
C292 C303 1.427 . A
C293 C294 1.373 . A
C293 C304 1.422 . A
H295 C300 0.989 . S
H296 C300 0.991 . S
H297 C302 0.950 . S
H298 C304 0.950 . S
H299 C305 0.951 . S
C300 C301 1.520 . S
C301 C302 1.342 . A
C301 C303 1.424 . A
C303 C305 1.433 . A
C304 C305 1.373 . A
H306 C311 0.989 . S
H307 C311 0.991 . S
H308 C313 0.950 . S
H309 C315 0.950 . S
H310 C316 0.951 . S
C311 C312 1.520 . S
C312 C313 1.342 . A
C312 C314 1.424 . A
C313 C324 1.435 . A
C314 C316 1.433 . A
C314 C325 1.427 . A
C315 C316 1.373 . A
C315 C326 1.422 . A
H317 C322 0.989 . S
H318 C322 0.991 . S
H319 C324 0.950 . S
H320 C326 0.950 . S
H321 C327 0.951 . S
C322 C323 1.520 . S
C323 C324 1.342 . A
C323 C325 1.424 . A
C325 C327 1.433 . A
C326 C327 1.373 . A
H328 C333 0.989 . S
H329 C333 0.991 . S
H330 C335 0.950 . S
H331 C337 0.950 . S
H332 C338 0.951 . S
C333 C334 1.520 . S
C334 C335 1.342 . A
C334 C336 1.424 . A
C335 C346 1.435 . A
C336 C338 1.433 . A
C336 C347 1.427 . A
C337 C338 1.373 . A
C337 C348 1.422 . A
H339 C344 0.989 . S
H340 C344 0.991 . S
H341 C346 0.950 . S
H342 C348 0.950 . S
H343 C349 0.951 . S
C344 C345 1.520 . S
C345 C346 1.342 . A
C345 C347 1.424 . A
C347 C349 1.433 . A
C348 C349 1.373 . A
H350 C355 0.989 . S
H351 C355 0.991 . S
H352 C357 0.950 . S
H353 C359 0.950 . S
H354 C360 0.951 . S
C355 C356 1.520 . S
C356 C357 1.342 . A
C356 C358 1.424 . A
C357 C368 1.435 . A
C358 C360 1.433 . A
C358 C369 1.427 . A
C359 C360 1.373 . A
C359 C370 1.422 . A
H361 C366 0.989 . S
H362 C366 0.991 . S
H363 C368 0.950 . S
H364 C370 0.950 . S
H365 C371 0.951 . S
C366 C367 1.520 . S
C367 C368 1.342 . A
C367 C369 1.424 . A
C369 C371 1.433 . A
C370 C371 1.373 . A
H372 C377 0.989 . S
H373 C377 0.991 . S
H374 C379 0.950 . S
H375 C381 0.950 . S
H376 C382 0.951 . S
C377 C378 1.520 . S
C378 C379 1.342 . A
C378 C380 1.424 . A
C379 C390 1.435 . A
C380 C382 1.433 . A
C380 C391 1.427 . A
C381 C382 1.373 . A
C381 C392 1.422 . A
H383 C388 0.989 . S
H384 C388 0.991 . S
H385 C390 0.950 . S
H386 C392 0.950 . S
H387 C393 0.951 . S
C388 C389 1.520 . S
C389 C390 1.342 . A
C389 C391 1.424 . A
C391 C393 1.433 . A
C392 C393 1.373 . A
H394 C399 0.989 . S
H395 C399 0.991 . S
H396 C401 0.950 . S
H397 C403 0.950 . S
H398 C404 0.951 . S
C399 C400 1.520 . S
C400 C401 1.342 . A
C400 C402 1.424 . A
C401 C412 1.435 . A
C402 C404 1.433 . A
C402 C413 1.427 . A
C403 C404 1.373 . A
C403 C414 1.422 . A
H405 C410 0.989 . S
H406 C410 0.991 . S
H407 C412 0.950 . S
H408 C414 0.950 . S
H409 C415 0.951 . S
C410 C411 1.520 . S
C411 C412 1.342 . A
C411 C413 1.424 . A
C413 C415 1.433 . A
C414 C415 1.373 . A
H416 C421 0.989 . S
H417 C421 0.991 . S
H418 C423 0.950 . S
H419 C425 0.950 . S
H420 C426 0.951 . S
C421 C422 1.520 . S
C422 C423 1.342 . A
C422 C424 1.424 . A
C423 C434 1.435 . A
C424 C426 1.433 . A
C424 C435 1.427 . A
C425 C426 1.373 . A
C425 C436 1.422 . A
H427 C432 0.989 . S
H428 C432 0.991 . S
H429 C434 0.950 . S
H430 C436 0.950 . S
H431 C437 0.951 . S
C432 C433 1.520 . S
C433 C434 1.342 . A
C433 C435 1.424 . A
C435 C437 1.433 . A
C436 C437 1.373 . A
H438 C443 0.989 . S
H439 C443 0.991 . S
H440 C445 0.950 . S
H441 C447 0.950 . S
H442 C448 0.951 . S
C443 C444 1.520 . S
C444 C445 1.342 . A
C444 C446 1.424 . A
C445 C456 1.435 . A
C446 C448 1.433 . A
C446 C457 1.427 . A
C447 C448 1.373 . A
C447 C458 1.422 . A
H449 C454 0.989 . S
H450 C454 0.991 1_556 S
H451 C456 0.950 . S
H452 C458 0.950 . S
H453 C459 0.951 . S
C454 C455 1.520 . S
C455 C456 1.342 . A
C455 C457 1.424 . A
C457 C459 1.433 . A
C458 C459 1.373 . A
H460 C465 0.989 . S
H461 C465 0.991 . S
H462 C467 0.950 . S
H463 C469 0.950 . S
H464 C470 0.951 . S
C465 C466 1.520 . S
C466 C467 1.342 . A
C466 C468 1.424 . A
C467 C478 1.435 . A
C468 C470 1.433 . A
C468 C479 1.427 . A
C469 C470 1.373 . A
C469 C480 1.422 . A
H471 C476 0.989 . S
H472 C476 0.991 . S
H473 C478 0.950 . S
H474 C480 0.950 . S
H475 C481 0.951 . S
C476 C477 1.520 . S
C477 C478 1.342 . A
C477 C479 1.424 . A
C479 C481 1.433 . A
C480 C481 1.373 . A
H482 C487 0.989 . S
H483 C487 0.991 . S
H484 C489 0.950 . S
H485 C491 0.950 . S
H486 C492 0.951 . S
C487 C488 1.520 . S
C488 C489 1.342 . A
C488 C490 1.424 . A
C489 C500 1.435 . A
C490 C492 1.433 . A
C490 C501 1.427 . A
C491 C492 1.373 . A
C491 C502 1.422 . A
H493 C498 0.989 . S
H494 C498 0.991 . S
H495 C500 0.950 . S
H496 C502 0.950 . S
H497 C503 0.951 . S
C498 C499 1.520 . S
C499 C500 1.342 . A
C499 C501 1.424 . A
C501 C503 1.433 . A
C502 C503 1.373 . A
H504 C509 0.989 . S
H505 C509 0.991 . S
H506 C511 0.950 . S
H507 C513 0.950 . S
H508 C514 0.951 . S
C509 C510 1.520 . S
C510 C511 1.342 . A
C510 C512 1.424 . A
C511 C522 1.435 . A
C512 C514 1.433 . A
C512 C523 1.427 . A
C513 C514 1.373 . A
C513 C524 1.422 . A
H515 C520 0.989 . S
H516 C520 0.991 . S
H517 C522 0.950 . S
H518 C524 0.950 . S
H519 C525 0.951 . S
C520 C521 1.520 . S
C521 C522 1.342 . A
C521 C523 1.424 . A
C523 C525 1.433 . A
C524 C525 1.373 . A
H526 C531 0.989 . S
H527 C531 0.991 . S
H528 C533 0.950 . S
H529 C535 0.950 . S
H530 C536 0.951 . S
C531 C532 1.520 . S
C532 C533 1.342 . A
C532 C534 1.424 . A
C533 C544 1.435 . A
C534 C536 1.433 . A
C534 C545 1.427 . A
C535 C536 1.373 . A
C535 C546 1.422 . A
H537 C542 0.989 . S
H538 C542 0.991 . S
H539 C544 0.950 . S
H540 C546 0.950 . S
H541 C547 0.951 . S
C542 C543 1.520 . S
C543 C544 1.342 . A
C543 C545 1.424 . A
C545 C547 1.433 . A
C546 C547 1.373 . A
H548 C553 0.989 . S
H549 C553 0.991 . S
H550 C555 0.950 . S
H551 C557 0.950 . S
H552 C558 0.951 . S
C553 C554 1.520 . S
C554 C555 1.342 . A
C554 C556 1.424 . A
C555 C566 1.435 . A
C556 C558 1.433 . A
C556 C567 1.427 . A
C557 C558 1.373 . A
C557 C568 1.422 . A
H559 C564 0.989 . S
H560 C564 0.991 . S
H561 C566 0.950 . S
H562 C568 0.950 . S
H563 C569 0.951 . S
C564 C565 1.520 . S
C565 C566 1.342 . A
C565 C567 1.424 . A
C567 C569 1.433 . A
C568 C569 1.373 . A
H570 C575 0.989 . S
H571 C575 0.991 . S
H572 C577 0.950 . S
H573 C579 0.950 . S
H574 C580 0.951 . S
C575 C576 1.520 . S
C576 C577 1.342 . A
C576 C578 1.424 . A
C577 C588 1.435 . A
C578 C580 1.433 . A
C578 C589 1.427 . A
C579 C580 1.373 . A
C579 C590 1.422 . A
H581 C586 0.989 . S
H582 C586 0.991 . S
H583 C588 0.950 . S
H584 C590 0.950 . S
H585 C591 0.951 . S
C586 C587 1.520 . S
C587 C588 1.342 . A
C587 C589 1.424 . A
C589 C591 1.433 . A
C590 C591 1.373 . A
H592 C597 0.989 . S
H593 C597 0.991 . S
H594 C599 0.950 . S
H595 C601 0.950 . S
H596 C602 0.951 . S
C597 C598 1.520 . S
C598 C599 1.342 . A
C598 C600 1.424 . A
C599 C610 1.435 . A
C600 C602 1.433 . A
C600 C611 1.427 . A
C601 C602 1.373 . A
C601 C612 1.422 . A
H603 C608 0.989 . S
H604 C608 0.991 . S
H605 C610 0.950 . S
H606 C612 0.950 . S
H607 C613 0.951 . S
C608 C609 1.520 . S
C609 C610 1.342 . A
C609 C611 1.424 . A
C611 C613 1.433 . A
C612 C613 1.373 . A
H614 C619 0.989 . S
H615 C619 0.991 . S
H616 C621 0.950 . S
H617 C623 0.950 . S
H618 C624 0.951 . S
C619 C620 1.520 . S
C620 C621 1.342 . A
C620 C622 1.424 1_556 A
C621 C632 1.435 . A
C622 C624 1.433 . A
C622 C633 1.427 . A
C623 C624 1.373 . A
C623 C634 1.422 . A
H625 C630 0.989 1_554 S
H626 C630 0.991 . S
H627 C632 0.950 . S
H628 C634 0.950 . S
H629 C635 0.951 . S
C630 C631 1.520 . S
C631 C632 1.342 . A
C631 C633 1.424 1_556 A
C633 C635 1.433 . A
C634 C635 1.373 . A
H636 C641 0.989 . S
H637 C641 0.991 . S
H638 C643 0.950 . S
H639 C645 0.950 . S
H640 C646 0.951 . S
C641 C642 1.520 . S
C642 C643 1.342 . A
C642 C644 1.424 . A
C643 C654 1.435 . A
C644 C646 1.433 . A
C644 C655 1.427 . A
C645 C646 1.373 . A
C645 C656 1.422 . A
H647 C652 0.989 . S
H648 C652 0.991 . S
H649 C654 0.950 . S
H650 C656 0.950 . S
H651 C657 0.951 . S
C652 C653 1.520 . S
C653 C654 1.342 . A
C653 C655 1.424 . A
C655 C657 1.433 . A
C656 C657 1.373 . A
H658 C663 0.989 . S
H659 C663 0.991 . S
H660 C665 0.950 . S
H661 C667 0.950 . S
H662 C668 0.951 . S
C663 C664 1.520 . S
C664 C665 1.342 . A
C664 C666 1.424 . A
C665 C676 1.435 . A
C666 C668 1.433 . A
C666 C677 1.427 . A
C667 C668 1.373 1_545 A
C667 C678 1.422 . A
H669 C674 0.989 . S
H670 C674 0.991 . S
H671 C676 0.950 . S
H672 C678 0.950 . S
H673 C679 0.951 . S
C674 C675 1.520 . S
C675 C676 1.342 . A
C675 C677 1.424 . A
C677 C679 1.433 . A
C678 C679 1.373 1_545 A
H680 C685 0.989 . S
H681 C685 0.991 . S
H682 C687 0.950 . S
H683 C689 0.950 . S
H684 C690 0.951 . S
C685 C686 1.520 . S
C686 C687 1.342 . A
C686 C688 1.424 . A
C687 C698 1.435 . A
C688 C690 1.433 . A
C688 C699 1.427 . A
C689 C690 1.373 . A
C689 C700 1.422 . A
H691 C696 0.989 . S
H692 C696 0.991 . S
H693 C698 0.950 . S
H694 C700 0.950 . S
H695 C701 0.951 . S
C696 C697 1.520 . S
C697 C698 1.342 . A
C697 C699 1.424 . A
C699 C701 1.433 . A
C700 C701 1.373 . A
H702 C707 0.989 . S
H703 C707 0.991 . S
H704 C709 0.950 . S
H705 C711 0.950 . S
H706 C712 0.951 . S
C707 C708 1.520 . S
C708 C709 1.342 . A
C708 C710 1.424 . A
C709 C720 1.435 . A
C710 C712 1.433 . A
C710 C721 1.427 . A
C711 C712 1.373 . A
C711 C722 1.422 . A
H713 C718 0.989 . S
H714 C718 0.991 . S
H715 C720 0.950 . S
H716 C722 0.950 . S
H717 C723 0.951 . S
C718 C719 1.520 . S
C719 C720 1.342 . A
C719 C721 1.424 . A
C721 C723 1.433 . A
C722 C723 1.373 . A
H724 C729 0.989 . S
H725 C729 0.991 . S
H726 C731 0.950 . S
H727 C733 0.950 . S
H728 C734 0.951 . S
C729 C730 1.520 . S
C730 C731 1.342 . A
C730 C732 1.424 . A
C731 C742 1.435 . A
C732 C734 1.433 . A
C732 C743 1.427 . A
C733 C734 1.373 . A
C733 C744 1.422 . A
H735 C740 0.989 . S
H736 C740 0.991 . S
H737 C742 0.950 . S
H738 C744 0.950 . S
H739 C745 0.951 . S
C740 C741 1.520 . S
C741 C742 1.342 . A
C741 C743 1.424 . A
C743 C745 1.433 . A
C744 C745 1.373 . A
H746 C751 0.989 . S
H747 C751 0.991 . S
H748 C753 0.950 . S
H749 C755 0.950 . S
H750 C756 0.951 . S
C751 C752 1.520 . S
C752 C753 1.342 . A
C752 C754 1.424 . A
C753 C764 1.435 . A
C754 C756 1.433 . A
C754 C765 1.427 . A
C755 C756 1.373 . A
C755 C766 1.422 . A
H757 C762 0.989 . S
H758 C762 0.991 . S
H759 C764 0.950 . S
H760 C766 0.950 . S
H761 C767 0.951 . S
C762 C763 1.520 . S
C763 C764 1.342 . A
C763 C765 1.424 . A
C765 C767 1.433 . A
C766 C767 1.373 . A
H768 C773 0.989 1_655 S
H769 C773 0.991 1_655 S
H770 C775 0.950 . S
H771 C777 0.950 . S
H772 C778 0.951 . S
C773 C774 1.520 1_455 S
C774 C775 1.342 1_655 A
C774 C776 1.424 . A
C775 C786 1.435 . A
C776 C778 1.433 . A
C776 C787 1.427 . A
C777 C778 1.373 . A
C777 C788 1.422 . A
H779 C784 0.989 . S
H780 C784 0.991 . S
H781 C786 0.950 . S
H782 C788 0.950 . S
H783 C789 0.951 . S
C784 C785 1.520 . S
C785 C786 1.342 1_655 A
C785 C787 1.424 . A
C787 C789 1.433 . A
C788 C789 1.373 . A
H790 C795 0.989 . S
H791 C795 0.991 1_565 S
H792 C797 0.950 . S
H793 C799 0.950 . S
H794 C800 0.951 . S
C795 C796 1.520 . S
C796 C797 1.342 1_545 A
C796 C798 1.424 . A
C797 C808 1.435 1_556 A
C798 C800 1.433 . A
C798 C809 1.427 1_556 A
C799 C800 1.373 . A
C799 C810 1.422 1_556 A
H801 C806 0.989 . S
H802 C806 0.991 1_545 S
H803 C808 0.950 . S
H804 C810 0.950 . S
H805 C811 0.951 . S
C806 C807 1.520 . S
C807 C808 1.342 . A
C807 C809 1.424 1_565 A
C809 C811 1.433 . A
C810 C811 1.373 . A
H812 C817 0.989 . S
H813 C817 0.991 . S
H814 C819 0.950 . S
H815 C821 0.950 . S
H816 C822 0.951 . S
C817 C818 1.520 . S
C818 C819 1.342 . A
C818 C820 1.424 . A
C819 C830 1.435 . A
C820 C822 1.433 . A
C820 C831 1.427 . A
C821 C822 1.373 . A
C821 C832 1.422 . A
H823 C828 0.989 . S
H824 C828 0.991 . S
H825 C830 0.950 . S
H826 C832 0.950 . S
H827 C833 0.951 . S
C828 C829 1.520 . S
C829 C830 1.342 . A
C829 C831 1.424 . A
C831 C833 1.433 . A
C832 C833 1.373 . A
H834 C839 0.989 1_655 S
H835 C839 0.991 . S
H836 C841 0.950 . S
H837 C843 0.950 . S
H838 C844 0.951 . S
C839 C840 1.520 1_455 S
C840 C841 1.342 1_655 A
C840 C842 1.424 . A
C841 C852 1.435 . A
C842 C844 1.433 . A
C842 C853 1.427 . A
C843 C844 1.373 . A
C843 C854 1.422 . A
H845 C850 0.989 . S
H846 C850 0.991 . S
H847 C852 0.950 . S
H848 C854 0.950 . S
H849 C855 0.951 . S
C850 C851 1.520 . S
C851 C852 1.342 1_655 A
C851 C853 1.424 . A
C853 C855 1.433 . A
C854 C855 1.373 . A
H856 C861 0.989 . S
H857 C861 0.991 . S
H858 C863 0.950 . S
H859 C865 0.950 . S
H860 C866 0.951 . S
C861 C862 1.520 . S
C862 C863 1.342 . A
C862 C864 1.424 . A
C863 C874 1.435 . A
C864 C866 1.433 . A
C864 C875 1.427 . A
C865 C866 1.373 . A
C865 C876 1.422 . A
H867 C872 0.989 . S
H868 C872 0.991 . S
H869 C874 0.950 . S
H870 C876 0.950 . S
H871 C877 0.951 . S
C872 C873 1.520 . S
C873 C874 1.342 . A
C873 C875 1.424 . A
C875 C877 1.433 . A
C876 C877 1.373 . A
H878 C883 0.989 . S
H879 C883 0.991 . S
H880 C885 0.950 . S
H881 C887 0.950 . S
H882 C888 0.951 . S
C883 C884 1.520 . S
C884 C885 1.342 . A
C884 C886 1.424 1_565 A
C885 C896 1.428 1_565 A
C886 C888 1.433 . A
C886 C897 1.427 . A
C887 C888 1.373 . A
C887 C898 1.422 . A
H889 C894 0.989 . S
H890 C894 0.991 . S
H891 C896 0.934 1_565 S
H892 C898 0.950 . S
H893 C899 0.951 . S
C894 C895 1.520 . S
C895 C896 1.366 . A
C895 C897 1.424 . A
C897 C899 1.433 . A
C898 C899 1.373 . A
C245 C108 1.186 . S
C256 C8 1.421 . S
C267 C48 0.723 . S
C278 C28 0.178 . S
C289 C68 0.602 . S
C300 C168 1.235 . S
C311 C88 0.630 . S
C322 C228 1.250 . S
C333 C208 1.421 . S
C344 C128 1.186 . S
C355 C188 1.187 . S
C366 C148 1.421 . S
C377 C16 1.292 . S
C388 C32 1.226 . S
C399 C36 1.199 . S
C410 C172 1.283 . S
C421 C112 1.334 . S
C432 C56 1.076 . S
C443 C76 1.351 . S
C454 C52 1.180 . S
C465 C96 1.329 . S
C476 C132 1.185 . S
C487 C116 1.323 . S
C498 C92 1.204 . S
C509 C152 1.186 . S
C520 C136 1.345 . S
C531 C72 1.227 . S
C542 C156 1.255 . S
C553 C192 1.247 . S
C564 C176 1.261 . S
C575 C196 1.096 . S
C586 C212 1.321 . S
C597 C216 1.327 . S
C608 C232 1.201 . S
C619 C236 1.140 . S
C630 C12 1.313 . S
C641 C66 0.800 . S
C652 C6 0.792 . S
C663 C146 0.864 . S
C674 C26 0.919 . S
C685 C46 0.900 . S
C696 C226 0.926 . S
C707 C86 0.832 . S
C718 C186 0.900 . S
C729 C106 0.796 . S
C740 C206 0.859 . S
C751 C126 0.834 . S
C762 C166 0.787 . S
C773 C95 1.314 . S
C784 C15 1.415 . S
C795 C115 1.480 . S
C806 C35 1.444 . S
C817 C175 1.079 . S
C828 C55 0.971 . S
C839 C195 1.008 . S
C850 C75 1.133 . S
C861 C235 1.069 . S
C872 C135 0.962 . S
C883 C155 0.924 . S
C894 C215 0.987 . S
