# Generated by pormake.
# Topology fnr, (5)-cn, num edge types: 1
# Building blocks:
#     Node 0, Type 0, BuildingBlock: N482, # of connection points: 5
#     Node 1, Type 0, BuildingBlock: N482, # of connection points: 5
#     Node 2, Type 0, BuildingBlock: N482, # of connection points: 5
#     Node 3, Type 0, BuildingBlock: N482, # of connection points: 5
#     Node 4, Type 0, BuildingBlock: N482, # of connection points: 5
#     Node 5, Type 0, BuildingBlock: N482, # of connection points: 5
#     Node 6, Type 0, BuildingBlock: N482, # of connection points: 5
#     Node 7, Type 0, BuildingBlock: N482, # of connection points: 5
#     Node 8, Type 0, BuildingBlock: N482, # of connection points: 5
#     Node 9, Type 0, BuildingBlock: N482, # of connection points: 5
#     Node 10, Type 0, BuildingBlock: N482, # of connection points: 5
#     Node 11, Type 0, BuildingBlock: N482, # of connection points: 5
#     Edge 12, Type (0, 0), BuildingBlock: E16, # of connection points: 2
#     Edge 13, Type (0, 0), BuildingBlock: E16, # of connection points: 2
#     Edge 14, Type (0, 0), BuildingBlock: E16, # of connection points: 2
#     Edge 15, Type (0, 0), BuildingBlock: E16, # of connection points: 2
#     Edge 16, Type (0, 0), BuildingBlock: E16, # of connection points: 2
#     Edge 17, Type (0, 0), BuildingBlock: E16, # of connection points: 2
#     Edge 18, Type (0, 0), BuildingBlock: E16, # of connection points: 2
#     Edge 19, Type (0, 0), BuildingBlock: E16, # of connection points: 2
#     Edge 20, Type (0, 0), BuildingBlock: E16, # of connection points: 2
#     Edge 21, Type (0, 0), BuildingBlock: E16, # of connection points: 2
#     Edge 22, Type (0, 0), BuildingBlock: E16, # of connection points: 2
#     Edge 23, Type (0, 0), BuildingBlock: E16, # of connection points: 2
#     Edge 24, Type (0, 0), BuildingBlock: E16, # of connection points: 2
#     Edge 25, Type (0, 0), BuildingBlock: E16, # of connection points: 2
#     Edge 26, Type (0, 0), BuildingBlock: E16, # of connection points: 2
#     Edge 27, Type (0, 0), BuildingBlock: E16, # of connection points: 2
#     Edge 28, Type (0, 0), BuildingBlock: E16, # of connection points: 2
#     Edge 29, Type (0, 0), BuildingBlock: E16, # of connection points: 2
#     Edge 30, Type (0, 0), BuildingBlock: E16, # of connection points: 2
#     Edge 31, Type (0, 0), BuildingBlock: E16, # of connection points: 2
#     Edge 32, Type (0, 0), BuildingBlock: E16, # of connection points: 2
#     Edge 33, Type (0, 0), BuildingBlock: E16, # of connection points: 2
#     Edge 34, Type (0, 0), BuildingBlock: E16, # of connection points: 2
#     Edge 35, Type (0, 0), BuildingBlock: E16, # of connection points: 2
#     Edge 36, Type (0, 0), BuildingBlock: E16, # of connection points: 2
#     Edge 37, Type (0, 0), BuildingBlock: E16, # of connection points: 2
#     Edge 38, Type (0, 0), BuildingBlock: E16, # of connection points: 2
#     Edge 39, Type (0, 0), BuildingBlock: E16, # of connection points: 2
#     Edge 40, Type (0, 0), BuildingBlock: E16, # of connection points: 2
#     Edge 41, Type (0, 0), BuildingBlock: E16, # of connection points: 2
# Relax obj value: 0.244
# Max RMSD: 0.129
# Mean RMSD: 0.128
data_fnr+N482+E16
_symmetry_space_group_name_H-M    P1
_symmetry_Int_Tables_number       1
_symmetry_cell_setting            triclinic
loop_
_symmetry_equiv_pos_as_xyz
'x, y, z'
_cell_length_a     31.195
_cell_length_b     31.195
_cell_length_c     31.225
_cell_angle_alpha  89.992
_cell_angle_beta   89.992
_cell_angle_gamma  120.002
loop_
_atom_site_label
_atom_site_type_symbol
_atom_site_fract_x
_atom_site_fract_y
_atom_site_fract_z
_atom_type_partial_charge
Ni0 Ni 0.71862 0.16420 0.41047 0.00000
Ni1 Ni 0.83728 0.21328 0.42139 0.00000
C2 C 0.81687 0.28262 0.41856 0.00000
C3 C 0.90519 0.22616 0.46476 0.00000
O4 O 0.86030 0.29709 0.41217 0.00000
O5 O 0.90331 0.21078 0.42757 0.00000
O6 O 0.86887 0.23011 0.47862 0.00000
O7 O 0.82495 0.19552 0.36172 0.00000
O8 O 0.78699 0.23982 0.42566 0.00000
C9 C 0.78557 0.17799 0.34049 0.00000
C10 C 0.73632 0.09869 0.44018 0.00000
C11 C 0.64410 0.16065 0.43255 0.00000
O12 O 0.69503 0.08121 0.42539 0.00000
O13 O 0.65368 0.16516 0.39349 0.00000
O14 O 0.67639 0.16239 0.45861 0.00000
O15 O 0.74273 0.16533 0.35342 0.00000
O16 O 0.76543 0.14258 0.44070 0.00000
Ni17 Ni 0.62357 0.83795 0.92437 0.00000
Ni18 Ni 0.55629 0.72036 0.90596 0.00000
C19 C 0.63615 0.73614 0.94170 0.00000
C20 C 0.48363 0.64410 0.92131 0.00000
O21 O 0.61433 0.69607 0.92438 0.00000
O22 O 0.49282 0.65669 0.88300 0.00000
O23 O 0.51106 0.67437 0.95011 0.00000
O24 O 0.58520 0.74890 0.85132 0.00000
O25 O 0.62103 0.76497 0.94186 0.00000
C26 C 0.61637 0.79270 0.84152 0.00000
C27 C 0.53428 0.81735 0.91489 0.00000
C28 C 0.67329 0.90247 0.97292 0.00000
O29 O 0.56353 0.86122 0.91152 0.00000
O30 O 0.69082 0.90356 0.93679 0.00000
O31 O 0.63186 0.86503 0.98309 0.00000
O32 O 0.63557 0.83036 0.86508 0.00000
O33 O 0.54673 0.78715 0.92215 0.00000
Ni34 Ni 0.62355 0.78497 0.57561 0.00000
Ni35 Ni 0.55627 0.83528 0.59404 0.00000
C36 C 0.63615 0.89938 0.55829 0.00000
C37 C 0.48362 0.83888 0.57871 0.00000
O38 O 0.61432 0.91762 0.57561 0.00000
O39 O 0.49279 0.83547 0.61701 0.00000
O40 O 0.51106 0.83605 0.54990 0.00000
O41 O 0.58516 0.83564 0.64868 0.00000
O42 O 0.62102 0.85542 0.55813 0.00000
C43 C 0.61633 0.82302 0.65847 0.00000
C44 C 0.53426 0.71628 0.58512 0.00000
C45 C 0.67329 0.77019 0.52706 0.00000
O46 O 0.56351 0.70166 0.58847 0.00000
O47 O 0.69081 0.78662 0.56318 0.00000
O48 O 0.63186 0.76620 0.51690 0.00000
O49 O 0.63553 0.80456 0.63491 0.00000
O50 O 0.54672 0.75894 0.57785 0.00000
Ni51 Ni 0.71862 0.55380 0.08953 0.00000
Ni52 Ni 0.83727 0.62337 0.07859 0.00000
C53 C 0.81686 0.53362 0.08142 0.00000
C54 C 0.90520 0.67841 0.03521 0.00000
O55 O 0.86029 0.56259 0.08781 0.00000
O56 O 0.90331 0.69191 0.07240 0.00000
O57 O 0.86889 0.63815 0.02136 0.00000
O58 O 0.82493 0.62880 0.13826 0.00000
O59 O 0.78698 0.54655 0.07433 0.00000
C60 C 0.78554 0.60694 0.15951 0.00000
C61 C 0.73632 0.63700 0.05982 0.00000
C62 C 0.64410 0.48283 0.06747 0.00000
O63 O 0.69503 0.61319 0.07462 0.00000
O64 O 0.65367 0.48789 0.10652 0.00000
O65 O 0.67640 0.51338 0.04140 0.00000
O66 O 0.74271 0.57676 0.14658 0.00000
O67 O 0.76543 0.62223 0.05930 0.00000
Ni68 Ni 0.16204 0.37644 0.57563 0.00000
Ni69 Ni 0.27964 0.44372 0.59404 0.00000
C70 C 0.26386 0.36385 0.55830 0.00000
C71 C 0.35590 0.51637 0.57869 0.00000
O72 O 0.30393 0.38568 0.57562 0.00000
O73 O 0.34331 0.50719 0.61700 0.00000
O74 O 0.32562 0.48894 0.54989 0.00000
O75 O 0.25110 0.41480 0.64868 0.00000
O76 O 0.23502 0.37898 0.55814 0.00000
C77 C 0.20730 0.38363 0.65848 0.00000
C78 C 0.18265 0.46572 0.58512 0.00000
C79 C 0.09753 0.32672 0.52708 0.00000
O80 O 0.13878 0.43648 0.58848 0.00000
O81 O 0.09644 0.30918 0.56321 0.00000
O82 O 0.13497 0.36815 0.51691 0.00000
O83 O 0.16964 0.36444 0.63492 0.00000
O84 O 0.21285 0.45327 0.57785 0.00000
Ni85 Ni 0.83580 0.28137 0.08953 0.00000
Ni86 Ni 0.78672 0.16272 0.07861 0.00000
C87 C 0.71738 0.18313 0.08144 0.00000
C88 C 0.77384 0.09481 0.03524 0.00000
O89 O 0.70292 0.13970 0.08783 0.00000
O90 O 0.78922 0.09669 0.07243 0.00000
O91 O 0.76989 0.13112 0.02138 0.00000
O92 O 0.80448 0.17504 0.13828 0.00000
O93 O 0.76019 0.21301 0.07434 0.00000
C94 C 0.82201 0.21443 0.15951 0.00000
C95 C 0.90131 0.26368 0.05982 0.00000
C96 C 0.83936 0.35589 0.06745 0.00000
O97 O 0.91879 0.30497 0.07461 0.00000
O98 O 0.83484 0.34631 0.10651 0.00000
O99 O 0.83762 0.32361 0.04139 0.00000
O100 O 0.83467 0.25727 0.14658 0.00000
O101 O 0.85742 0.23457 0.05930 0.00000
Ni102 Ni 0.44619 0.16418 0.08954 0.00000
Ni103 Ni 0.37662 0.21326 0.07861 0.00000
C104 C 0.46637 0.28261 0.08143 0.00000
C105 C 0.32160 0.22616 0.03524 0.00000
O106 O 0.43741 0.29707 0.08782 0.00000
O107 O 0.30809 0.21076 0.07243 0.00000
O108 O 0.36186 0.23011 0.02138 0.00000
O109 O 0.37117 0.19548 0.13828 0.00000
O110 O 0.45345 0.23980 0.07434 0.00000
C111 C 0.39303 0.17795 0.15952 0.00000
C112 C 0.36299 0.09868 0.05984 0.00000
C113 C 0.51716 0.16064 0.06747 0.00000
O114 O 0.38680 0.08120 0.07463 0.00000
O115 O 0.51209 0.16514 0.10652 0.00000
O116 O 0.48662 0.16239 0.04140 0.00000
O117 O 0.42321 0.16529 0.14659 0.00000
O118 O 0.37777 0.14257 0.05931 0.00000
Ni119 Ni 0.21504 0.83794 0.57562 0.00000
Ni120 Ni 0.16471 0.72034 0.59406 0.00000
C121 C 0.10063 0.73613 0.55832 0.00000
C122 C 0.16111 0.64409 0.57873 0.00000
O123 O 0.08238 0.69606 0.57565 0.00000
O124 O 0.16451 0.65667 0.61703 0.00000
O125 O 0.16396 0.67437 0.54992 0.00000
O126 O 0.16433 0.74887 0.64870 0.00000
O127 O 0.14459 0.76497 0.55815 0.00000
C128 C 0.17696 0.79266 0.65849 0.00000
C129 C 0.28372 0.81734 0.58512 0.00000
C130 C 0.22984 0.90247 0.52707 0.00000
O131 O 0.29834 0.86121 0.58847 0.00000
O132 O 0.21339 0.90355 0.56320 0.00000
O133 O 0.23383 0.86504 0.51691 0.00000
O134 O 0.19543 0.83033 0.63492 0.00000
O135 O 0.24106 0.78714 0.57785 0.00000
Ni136 Ni 0.83582 0.55380 0.41046 0.00000
Ni137 Ni 0.78674 0.62338 0.42139 0.00000
C138 C 0.71740 0.53362 0.41857 0.00000
C139 C 0.77385 0.67840 0.46476 0.00000
O140 O 0.70294 0.56259 0.41218 0.00000
O141 O 0.78924 0.69190 0.42757 0.00000
O142 O 0.76989 0.63813 0.47862 0.00000
O143 O 0.80452 0.62883 0.36172 0.00000
O144 O 0.76020 0.54655 0.42566 0.00000
C145 C 0.82206 0.60697 0.34048 0.00000
C146 C 0.90132 0.63700 0.44016 0.00000
C147 C 0.83936 0.48283 0.43253 0.00000
O148 O 0.91881 0.61320 0.42537 0.00000
O149 O 0.83486 0.48791 0.39348 0.00000
O150 O 0.83762 0.51338 0.45860 0.00000
O151 O 0.83471 0.57679 0.35341 0.00000
O152 O 0.85743 0.62222 0.44069 0.00000
Ni153 Ni 0.16205 0.78497 0.92438 0.00000
Ni154 Ni 0.27965 0.83529 0.90594 0.00000
C155 C 0.26386 0.89938 0.94168 0.00000
C156 C 0.35590 0.83889 0.92127 0.00000
O157 O 0.30394 0.91762 0.92435 0.00000
O158 O 0.34332 0.83550 0.88297 0.00000
O159 O 0.32562 0.83605 0.95008 0.00000
O160 O 0.25113 0.83567 0.85130 0.00000
O161 O 0.23503 0.85541 0.94185 0.00000
C162 C 0.20734 0.82305 0.84151 0.00000
C163 C 0.18265 0.71629 0.91488 0.00000
C164 C 0.09752 0.77017 0.97293 0.00000
O165 O 0.13879 0.70167 0.91153 0.00000
O166 O 0.09644 0.78661 0.93680 0.00000
O167 O 0.13495 0.76617 0.98309 0.00000
O168 O 0.16967 0.80458 0.86508 0.00000
O169 O 0.21285 0.75894 0.92215 0.00000
Ni170 Ni 0.44621 0.28138 0.41047 0.00000
Ni171 Ni 0.37663 0.16272 0.42141 0.00000
C172 C 0.46638 0.18314 0.41858 0.00000
C173 C 0.32159 0.09480 0.46479 0.00000
O174 O 0.43742 0.13971 0.41219 0.00000
O175 O 0.30810 0.09669 0.42760 0.00000
O176 O 0.36185 0.13111 0.47864 0.00000
O177 O 0.37120 0.17506 0.36174 0.00000
O178 O 0.45345 0.21301 0.42567 0.00000
C179 C 0.39306 0.21446 0.34049 0.00000
C180 C 0.36300 0.26367 0.44018 0.00000
C181 C 0.51717 0.35590 0.43253 0.00000
O182 O 0.38681 0.30497 0.42539 0.00000
O183 O 0.51211 0.34633 0.39348 0.00000
O184 O 0.48662 0.32360 0.45860 0.00000
O185 O 0.42324 0.25729 0.35342 0.00000
O186 O 0.37778 0.23457 0.44070 0.00000
Ni187 Ni 0.21503 0.37644 0.92439 0.00000
Ni188 Ni 0.16472 0.44373 0.90596 0.00000
C189 C 0.10062 0.36385 0.94171 0.00000
C190 C 0.16112 0.51638 0.92129 0.00000
O191 O 0.08238 0.38568 0.92439 0.00000
O192 O 0.16453 0.50720 0.88299 0.00000
O193 O 0.16396 0.48894 0.95010 0.00000
O194 O 0.16436 0.41483 0.85132 0.00000
O195 O 0.14459 0.37897 0.94187 0.00000
C196 C 0.17698 0.38366 0.84153 0.00000
C197 C 0.28372 0.46573 0.91488 0.00000
C198 C 0.22982 0.32671 0.97294 0.00000
O199 O 0.29834 0.43649 0.91153 0.00000
O200 O 0.21338 0.30919 0.93682 0.00000
O201 O 0.23381 0.36813 0.98310 0.00000
O202 O 0.19545 0.36446 0.86509 0.00000
O203 O 0.24107 0.45328 0.92215 0.00000
C204 C 0.51034 0.13567 0.40499 0.00000
C205 C 0.51458 0.18653 0.41792 0.00000
C206 C 0.56354 0.22521 0.43915 0.00000
C207 C 0.60538 0.21299 0.44649 0.00000
C208 C 0.59788 0.16217 0.43258 0.00000
C209 C 0.54640 0.12268 0.41312 0.00000
C210 C 0.53056 0.08781 0.37616 0.00000
C211 C 0.48727 0.10047 0.36854 0.00000
H212 H 0.56880 0.26264 0.44936 0.00000
H213 H 0.64158 0.24145 0.46214 0.00000
H214 H 0.51599 0.04778 0.38639 0.00000
H215 H 0.56208 0.10129 0.35199 0.00000
H216 H 0.44894 0.06822 0.37642 0.00000
H217 H 0.49011 0.11527 0.33465 0.00000
C218 C 0.34702 0.56953 0.90493 0.00000
C219 C 0.32972 0.51447 0.91827 0.00000
C220 C 0.36954 0.50461 0.93761 0.00000
C221 C 0.42325 0.54794 0.94317 0.00000
C222 C 0.43666 0.60074 0.92931 0.00000
C223 C 0.39562 0.60885 0.90758 0.00000
C224 C 0.37950 0.64627 0.91197 0.00000
C225 C 0.32391 0.60143 0.90624 0.00000
H226 H 0.35937 0.46554 0.94776 0.00000
H227 H 0.45275 0.54081 0.95745 0.00000
H228 H 0.39223 0.67360 0.88416 0.00000
H229 H 0.39173 0.66529 0.94444 0.00000
H230 H 0.30663 0.60264 0.87442 0.00000
H231 H 0.30082 0.59988 0.93513 0.00000
C232 C 0.49135 0.86713 0.91481 0.00000
C233 C 0.48511 0.81389 0.91868 0.00000
C234 C 0.43275 0.77101 0.92945 0.00000
C235 C 0.38966 0.78163 0.93563 0.00000
C236 C 0.39933 0.83506 0.93103 0.00000
C237 C 0.45381 0.87822 0.92229 0.00000
C238 C 0.47667 0.92205 0.89330 0.00000
C239 C 0.52126 0.91104 0.88687 0.00000
H240 H 0.42590 0.73168 0.93281 0.00000
H241 H 0.35094 0.75008 0.94357 0.00000
H242 H 0.48851 0.95833 0.91084 0.00000
H243 H 0.45060 0.91576 0.86539 0.00000
H244 H 0.55720 0.93999 0.90254 0.00000
H245 H 0.52561 0.90565 0.85136 0.00000
C246 C 0.37272 0.86406 0.56339 0.00000
C247 C 0.32939 0.81375 0.58149 0.00000
C248 C 0.34249 0.77352 0.59305 0.00000
C249 C 0.39613 0.78395 0.58679 0.00000
C250 C 0.43619 0.83450 0.56899 0.00000
C251 C 0.42078 0.87363 0.55541 0.00000
C252 C 0.44253 0.92800 0.56144 0.00000
C253 C 0.38703 0.91722 0.56794 0.00000
H254 H 0.31273 0.73629 0.60615 0.00000
H255 H 0.40596 0.75435 0.59530 0.00000
H256 H 0.46059 0.95005 0.53111 0.00000
H257 H 0.46883 0.94069 0.58999 0.00000
H258 H 0.37352 0.93126 0.54030 0.00000
H259 H 0.38378 0.93208 0.60041 0.00000
C260 C 0.59920 0.38877 0.04973 0.00000
C261 C 0.59797 0.43518 0.06822 0.00000
C262 C 0.55154 0.42474 0.09411 0.00000
C263 C 0.50937 0.37069 0.10087 0.00000
C264 C 0.51401 0.32756 0.08165 0.00000
C265 C 0.56075 0.33984 0.05348 0.00000
C266 C 0.59506 0.31970 0.05040 0.00000
C267 C 0.63870 0.37564 0.04343 0.00000
H268 H 0.54837 0.45677 0.10819 0.00000
H269 H 0.47505 0.36283 0.11998 0.00000
H270 H 0.58799 0.29558 0.02087 0.00000
H271 H 0.59364 0.29983 0.08147 0.00000
H272 H 0.65427 0.38312 0.00950 0.00000
H273 H 0.66827 0.38564 0.06902 0.00000
C274 C 0.42987 0.65387 0.59197 0.00000
C275 C 0.48551 0.67029 0.58176 0.00000
C276 C 0.49593 0.62958 0.56561 0.00000
C277 C 0.45259 0.57588 0.56005 0.00000
C278 C 0.39920 0.56336 0.57072 0.00000
C279 C 0.39039 0.60534 0.58930 0.00000
C280 C 0.35373 0.62178 0.58115 0.00000
C281 C 0.39859 0.67735 0.58688 0.00000
H282 H 0.53544 0.63910 0.55782 0.00000
H283 H 0.46012 0.54573 0.54812 0.00000
H284 H 0.32480 0.61012 0.60759 0.00000
H285 H 0.33663 0.60867 0.54809 0.00000
H286 H 0.39573 0.69571 0.61747 0.00000
H287 H 0.40214 0.69963 0.55681 0.00000
C288 C 0.86702 0.49484 0.07264 0.00000
C289 C 0.81330 0.48528 0.08221 0.00000
C290 C 0.77135 0.43070 0.08380 0.00000
C291 C 0.78340 0.38874 0.07634 0.00000
C292 C 0.83727 0.40175 0.06734 0.00000
C293 C 0.87862 0.45793 0.06370 0.00000
C294 C 0.93021 0.48831 0.08000 0.00000
C295 C 0.91774 0.53172 0.08774 0.00000
H296 H 0.73168 0.42138 0.09044 0.00000
H297 H 0.75254 0.34841 0.07750 0.00000
H298 H 0.95928 0.49771 0.05404 0.00000
H299 H 0.93568 0.46910 0.10882 0.00000
H300 H 0.93816 0.56418 0.06478 0.00000
H301 H 0.92417 0.54327 0.12285 0.00000
C302 C 0.59163 0.14222 0.03896 0.00000
C303 C 0.56487 0.16254 0.06865 0.00000
C304 C 0.59509 0.19537 0.10672 0.00000
C305 C 0.64896 0.20689 0.11389 0.00000
C306 C 0.67211 0.18544 0.08296 0.00000
C307 C 0.63922 0.14993 0.04584 0.00000
C308 C 0.64710 0.14482 0.99990 0.00000
C309 C 0.59136 0.13292 0.99203 0.00000
H310 H 0.57773 0.21105 0.12943 0.00000
H311 H 0.67139 0.23112 0.14195 0.00000
H312 H 0.65216 0.11175 0.99248 0.00000
H313 H 0.67904 0.18118 0.98702 0.00000
H314 H 0.56506 0.09272 0.98285 0.00000
H315 H 0.59121 0.16045 0.96810 0.00000
C316 C 0.12333 0.54530 0.57400 0.00000
C317 C 0.16547 0.60114 0.57012 0.00000
C318 C 0.21933 0.61175 0.57302 0.00000
C319 C 0.22954 0.56839 0.57924 0.00000
C320 C 0.18579 0.51481 0.58254 0.00000
C321 C 0.13131 0.50574 0.58173 0.00000
C322 C 0.08438 0.46952 0.56012 0.00000
C323 C 0.07382 0.51439 0.55366 0.00000
H324 H 0.25144 0.65140 0.57058 0.00000
H325 H 0.26925 0.57607 0.58138 0.00000
H326 H 0.05693 0.43987 0.58284 0.00000
H327 H 0.09326 0.45332 0.53098 0.00000
H328 H 0.04201 0.51079 0.57426 0.00000
H329 H 0.06868 0.51891 0.51812 0.00000
C330 C 0.78351 0.39027 0.42595 0.00000
C331 C 0.83773 0.43512 0.43200 0.00000
C332 C 0.88002 0.42296 0.43110 0.00000
C333 C 0.86789 0.36884 0.42429 0.00000
C334 C 0.81357 0.32736 0.41847 0.00000
C335 C 0.77123 0.34083 0.42188 0.00000
C336 C 0.72542 0.32755 0.39707 0.00000
C337 C 0.73798 0.38355 0.40410 0.00000
H338 H 0.92002 0.45377 0.43544 0.00000
H339 H 0.89900 0.35972 0.42359 0.00000
H340 H 0.69027 0.29954 0.41439 0.00000
H341 H 0.72870 0.31487 0.36360 0.00000
H342 H 0.71115 0.38679 0.42684 0.00000
H343 H 0.74103 0.40168 0.37168 0.00000
C344 C 0.65428 0.42950 0.40856 0.00000
C345 C 0.67232 0.48577 0.41742 0.00000
C346 C 0.63289 0.49809 0.43349 0.00000
C347 C 0.57884 0.45592 0.44025 0.00000
C348 C 0.56470 0.40181 0.43085 0.00000
C349 C 0.60539 0.39100 0.41232 0.00000
C350 C 0.62064 0.35358 0.42124 0.00000
C351 C 0.67658 0.39723 0.41426 0.00000
H352 H 0.64360 0.53813 0.44034 0.00000
H353 H 0.54963 0.46487 0.45212 0.00000
H354 H 0.60776 0.32373 0.39551 0.00000
H355 H 0.60791 0.33770 0.45472 0.00000
H356 H 0.69394 0.39278 0.38368 0.00000
H357 H 0.69924 0.40113 0.44415 0.00000
C358 C 0.21662 0.61068 0.93951 0.00000
C359 C 0.16474 0.56348 0.93030 0.00000
C360 C 0.12296 0.57280 0.91516 0.00000
C361 C 0.13342 0.62654 0.90961 0.00000
C362 C 0.18556 0.67048 0.91927 0.00000
C363 C 0.22649 0.65949 0.93684 0.00000
C364 C 0.27998 0.67907 0.92752 0.00000
C365 C 0.26915 0.62346 0.93325 0.00000
H366 H 0.08456 0.54018 0.90812 0.00000
H367 H 0.10268 0.63357 0.89843 0.00000
H368 H 0.30528 0.70510 0.95350 0.00000
H369 H 0.28909 0.69663 0.89432 0.00000
H370 H 0.28654 0.61813 0.96342 0.00000
H371 H 0.28038 0.61132 0.90285 0.00000
C372 C 0.76536 0.19259 0.26741 0.00000
C373 C 0.79779 0.18015 0.29814 0.00000
C374 C 0.84204 0.17859 0.27762 0.00000
C375 C 0.85265 0.18922 0.22916 0.00000
C376 C 0.81888 0.20127 0.20163 0.00000
C377 C 0.77253 0.19991 0.22327 0.00000
C378 C 0.74996 0.23221 0.22179 0.00000
C379 C 0.73901 0.22123 0.27195 0.00000
H380 H 0.86679 0.16964 0.29814 0.00000
H381 H 0.88529 0.18812 0.21389 0.00000
H382 H 0.71477 0.21579 0.20169 0.00000
H383 H 0.77894 0.27094 0.21093 0.00000
H384 H 0.69795 0.19687 0.27947 0.00000
H385 H 0.75709 0.25767 0.29035 0.00000
C386 C 0.66308 0.84489 0.77603 0.00000
C387 C 0.62007 0.79694 0.79770 0.00000
C388 C 0.57607 0.76235 0.76874 0.00000
C389 C 0.57605 0.77559 0.72093 0.00000
C390 C 0.61999 0.82333 0.70251 0.00000
C391 C 0.66295 0.85904 0.73362 0.00000
C392 C 0.71805 0.88703 0.73111 0.00000
C393 C 0.71808 0.87331 0.78058 0.00000
H394 H 0.54376 0.72718 0.78256 0.00000
H395 H 0.54365 0.75014 0.69944 0.00000
H396 H 0.73375 0.92837 0.72569 0.00000
H397 H 0.73086 0.86940 0.70594 0.00000
H398 H 0.73165 0.90663 0.80276 0.00000
H399 H 0.73948 0.85276 0.78453 0.00000
C400 C 0.77233 0.61624 0.28034 0.00000
C401 C 0.81970 0.61631 0.29808 0.00000
C402 C 0.85576 0.61574 0.26449 0.00000
C403 C 0.84443 0.61535 0.21615 0.00000
C404 C 0.79711 0.61551 0.20183 0.00000
C405 C 0.75988 0.61342 0.23707 0.00000
C406 C 0.73141 0.63953 0.24390 0.00000
C407 C 0.74315 0.63996 0.29393 0.00000
H408 H 0.89060 0.61560 0.27531 0.00000
H409 H 0.87096 0.61495 0.19126 0.00000
H410 H 0.69037 0.61538 0.23620 0.00000
H411 H 0.74966 0.67589 0.22536 0.00000
H412 H 0.70907 0.61432 0.31367 0.00000
H413 H 0.76308 0.67972 0.30614 0.00000
C414 C 0.23271 0.37322 0.73993 0.00000
C415 C 0.20248 0.37925 0.70224 0.00000
C416 C 0.15764 0.38474 0.71504 0.00000
C417 C 0.14465 0.38437 0.76297 0.00000
C418 C 0.17661 0.37846 0.79768 0.00000
C419 C 0.22046 0.37029 0.78327 0.00000
C420 C 0.27274 0.39027 0.79723 0.00000
C421 C 0.28619 0.39069 0.74762 0.00000
H422 H 0.13421 0.38907 0.68924 0.00000
H423 H 0.11159 0.38843 0.77255 0.00000
H424 H 0.27822 0.36257 0.81686 0.00000
H425 H 0.28610 0.42696 0.81457 0.00000
H426 H 0.29692 0.36169 0.73936 0.00000
H427 H 0.31546 0.42977 0.73786 0.00000
C428 C 0.33562 0.16567 0.27260 0.00000
C429 C 0.38381 0.20232 0.29821 0.00000
C430 C 0.43281 0.22732 0.27273 0.00000
C431 C 0.43267 0.21593 0.22443 0.00000
C432 C 0.38353 0.17961 0.20204 0.00000
C433 C 0.33470 0.15281 0.22964 0.00000
C434 C 0.28273 0.14174 0.22370 0.00000
C435 C 0.28288 0.15355 0.27368 0.00000
H436 H 0.46894 0.25407 0.28948 0.00000
H437 H 0.46877 0.23433 0.20551 0.00000
H438 H 0.25618 0.10124 0.21561 0.00000
H439 H 0.28189 0.16829 0.19907 0.00000
H440 H 0.25818 0.11925 0.29358 0.00000
H441 H 0.27371 0.18439 0.27790 0.00000
C442 C 0.14297 0.80446 0.73470 0.00000
C443 C 0.17764 0.79734 0.70223 0.00000
C444 C 0.22692 0.80451 0.72022 0.00000
C445 C 0.23987 0.81781 0.76806 0.00000
C446 C 0.20342 0.82384 0.79748 0.00000
C447 C 0.15472 0.81883 0.77742 0.00000
C448 C 0.10169 0.79386 0.79054 0.00000
C449 C 0.08829 0.78008 0.74103 0.00000
H450 H 0.25365 0.80002 0.69830 0.00000
H451 H 0.27620 0.82312 0.78146 0.00000
H452 H 0.09003 0.82091 0.80288 0.00000
H453 H 0.09390 0.76317 0.81443 0.00000
H454 H 0.07130 0.80116 0.72542 0.00000
H455 H 0.06433 0.73823 0.73754 0.00000
C456 C 0.64945 0.97588 0.51128 0.00000
C457 C 0.67993 0.95204 0.52948 0.00000
C458 C 0.73533 0.97778 0.51742 0.00000
C459 C 0.75814 0.02473 0.48893 0.00000
C460 C 0.72534 0.04550 0.47274 0.00000
C461 C 0.66838 0.01668 0.48383 0.00000
C462 C 0.63208 0.03134 0.49859 0.00000
C463 C 0.60848 0.98277 0.52809 0.00000
H464 H 0.75931 0.96222 0.52948 0.00000
H465 H 0.79903 0.04384 0.47997 0.00000
H466 H 0.60605 0.02932 0.47205 0.00000
H467 H 0.65268 0.06935 0.51437 0.00000
H468 H 0.57036 0.95293 0.51675 0.00000
H469 H 0.60885 0.99377 0.56296 0.00000
C470 C 0.75336 0.73520 0.01417 0.00000
C471 C 0.72520 0.67864 0.02667 0.00000
C472 C 0.67179 0.64704 0.00973 0.00000
C473 C 0.64876 0.67138 0.98179 0.00000
C474 C 0.67933 0.72712 0.97107 0.00000
C475 C 0.73275 0.75868 0.99085 0.00000
C476 C 0.78182 0.79729 0.97414 0.00000
C477 C 0.80566 0.77209 0.00303 0.00000
H478 H 0.64944 0.60593 0.01780 0.00000
H479 H 0.60935 0.64818 0.96922 0.00000
H480 H 0.79251 0.83615 0.98536 0.00000
H481 H 0.78240 0.79421 0.93779 0.00000
H482 H 0.82766 0.79599 0.03139 0.00000
H483 H 0.82806 0.76070 0.98186 0.00000
C484 C 0.67536 0.97823 0.99343 0.00000
C485 C 0.70106 0.94600 0.98807 0.00000
C486 C 0.75768 0.97280 0.99476 0.00000
C487 C 0.78610 0.02855 0.00634 0.00000
C488 C 0.75766 0.05702 0.01108 0.00000
C489 C 0.70029 0.02902 0.00175 0.00000
C490 C 0.65638 0.02664 0.02305 0.00000
C491 C 0.62697 0.96893 0.01109 0.00000
H492 H 0.77842 0.95155 0.99119 0.00000
H493 H 0.82789 0.04846 0.01132 0.00000
H494 H 0.64180 0.04870 0.00534 0.00000
H495 H 0.66547 0.03809 0.05803 0.00000
H496 H 0.59764 0.95939 0.98536 0.00000
H497 H 0.61155 0.94609 0.04154 0.00000
C498 C 0.33051 0.34443 0.52320 0.00000
C499 C 0.27281 0.32019 0.52941 0.00000
C500 C 0.23991 0.27132 0.50519 0.00000
C501 C 0.26417 0.24859 0.47676 0.00000
C502 C 0.32111 0.27496 0.47278 0.00000
C503 C 0.35332 0.32614 0.49616 0.00000
C504 C 0.39958 0.34859 0.52216 0.00000
C505 C 0.37447 0.37210 0.55160 0.00000
H506 H 0.19791 0.25208 0.50828 0.00000
H507 H 0.24001 0.21251 0.45885 0.00000
H508 H 0.43313 0.37773 0.50378 0.00000
H509 H 0.40545 0.31802 0.53580 0.00000
H510 H 0.39266 0.41398 0.54806 0.00000
H511 H 0.37308 0.35974 0.58618 0.00000
C512 C 0.99711 0.27495 0.95609 0.00000
C513 C 0.04790 0.32072 0.97044 0.00000
C514 C 0.04900 0.34300 0.01487 0.00000
C515 C 0.00164 0.32005 0.04284 0.00000
C516 C 0.95360 0.27505 0.02611 0.00000
C517 C 0.95322 0.25502 0.97966 0.00000
C518 C 0.93367 0.20495 0.96037 0.00000
C519 C 0.98269 0.22869 0.93143 0.00000
H520 H 0.08459 0.37623 0.02699 0.00000
H521 H 0.00230 0.33638 0.07566 0.00000
H522 H 0.89857 0.19275 0.94082 0.00000
H523 H 0.92878 0.17731 0.98648 0.00000
H524 H 0.97507 0.23175 0.89619 0.00000
H525 H 0.00329 0.20755 0.93681 0.00000
C526 C 0.24530 0.96190 0.00759 0.00000
C527 C 0.27334 0.95246 0.97000 0.00000
C528 C 0.32731 0.99344 0.96158 0.00000
C529 C 0.35114 0.04068 0.98967 0.00000
C530 C 0.32076 0.04655 0.02592 0.00000
C531 C 0.26495 0.00513 0.03205 0.00000
C532 C 0.23309 0.97887 0.06964 0.00000
C533 C 0.20845 0.92996 0.04058 0.00000
H534 H 0.34950 0.98885 0.93475 0.00000
H535 H 0.39097 0.07101 0.98356 0.00000
H536 H 0.20618 0.99231 0.07792 0.00000
H537 H 0.25741 0.98133 0.09786 0.00000
H538 H 0.16864 0.91759 0.03112 0.00000
H539 H 0.21254 0.89963 0.05715 0.00000
C540 C 0.04513 0.70332 0.48464 0.00000
C541 C 0.04772 0.72718 0.52978 0.00000
C542 C 0.00010 0.72628 0.54527 0.00000
C543 C 0.95330 0.70247 0.51680 0.00000
C544 C 0.95425 0.67981 0.47307 0.00000
C545 C 0.00418 0.68382 0.45736 0.00000
C546 C 0.01779 0.64918 0.43670 0.00000
C547 C 0.06636 0.67380 0.46618 0.00000
H548 H 0.99990 0.74310 0.57757 0.00000
H549 H 0.91819 0.70172 0.52813 0.00000
H550 H 0.02658 0.65716 0.40117 0.00000
H551 H 0.98760 0.60938 0.44317 0.00000
H552 H 0.10185 0.69726 0.44725 0.00000
H553 H 0.06754 0.64388 0.48625 0.00000
C554 C 0.67576 0.70157 0.49037 0.00000
C555 C 0.70096 0.75429 0.51201 0.00000
C556 C 0.75684 0.77862 0.52181 0.00000
C557 C 0.78513 0.75118 0.51016 0.00000
C558 C 0.75729 0.69965 0.48885 0.00000
C559 C 0.69972 0.67489 0.48145 0.00000
C560 C 0.66549 0.64742 0.44548 0.00000
C561 C 0.63622 0.67583 0.45751 0.00000
H562 H 0.77714 0.81665 0.53757 0.00000
H563 H 0.82639 0.76902 0.51733 0.00000
H564 H 0.64278 0.60587 0.45156 0.00000
H565 H 0.68727 0.65686 0.41423 0.00000
H566 H 0.59822 0.65046 0.47208 0.00000
H567 H 0.63476 0.69706 0.42836 0.00000
C568 C 0.97861 0.75731 0.01771 0.00000
C569 C 0.94315 0.69989 0.01163 0.00000
C570 C 0.96637 0.67061 0.99227 0.00000
C571 C 0.02197 0.69796 0.98015 0.00000
C572 C 0.05385 0.75435 0.98746 0.00000
C573 C 0.02821 0.78336 0.00514 0.00000
C574 C 0.04114 0.82252 0.03810 0.00000
C575 C 0.98360 0.79421 0.05067 0.00000
H576 H 0.94260 0.62900 0.98696 0.00000
H577 H 0.03925 0.67648 0.96587 0.00000
H578 H 0.05410 0.86058 0.02353 0.00000
H579 H 0.06907 0.82233 0.06153 0.00000
H580 H 0.96415 0.81553 0.04129 0.00000
H581 H 0.97933 0.78391 0.08606 0.00000
C582 C 0.26914 0.96633 0.46648 0.00000
C583 C 0.24606 0.94603 0.51204 0.00000
C584 C 0.25210 0.98484 0.54581 0.00000
C585 C 0.27958 0.04050 0.53388 0.00000
C586 C 0.30080 0.05686 0.48830 0.00000
C587 C 0.29621 0.01638 0.45544 0.00000
C588 C 0.28276 0.00609 0.40928 0.00000
C589 C 0.25430 0.94848 0.42162 0.00000
H590 H 0.23636 0.97249 0.57939 0.00000
H591 H 0.28411 0.06927 0.55872 0.00000
H592 H 0.31622 0.01702 0.38779 0.00000
H593 H 0.26036 0.02421 0.39931 0.00000
H594 H 0.27322 0.92797 0.40864 0.00000
H595 H 0.21383 0.93089 0.41164 0.00000
C596 C 0.31238 0.27604 0.97116 0.00000
C597 C 0.29987 0.24259 0.01235 0.00000
C598 C 0.25865 0.23956 0.04179 0.00000
C599 C 0.23187 0.26844 0.02995 0.00000
C600 C 0.24657 0.30013 0.98878 0.00000
C601 C 0.29062 0.30441 0.96077 0.00000
C602 C 0.29916 0.30255 0.91401 0.00000
C603 C 0.32686 0.27263 0.92626 0.00000
H604 H 0.24802 0.21611 0.07214 0.00000
H605 H 0.20141 0.26629 0.05159 0.00000
H606 H 0.32520 0.34059 0.89983 0.00000
H607 H 0.26204 0.28246 0.89672 0.00000
H608 H 0.36854 0.29490 0.92073 0.00000
H609 H 0.30833 0.23544 0.90902 0.00000
C610 C 0.02503 0.24279 0.50001 0.00000
C611 C 0.05411 0.29963 0.51149 0.00000
C612 C 0.02442 0.32707 0.50992 0.00000
C613 C 0.96886 0.29847 0.49770 0.00000
C614 C 0.94349 0.24270 0.48713 0.00000
C615 C 0.97566 0.21660 0.48684 0.00000
C616 C 0.96871 0.16867 0.50328 0.00000
C617 C 0.02621 0.19826 0.51595 0.00000
H618 H 0.04341 0.36825 0.51775 0.00000
H619 H 0.94682 0.31859 0.49653 0.00000
H620 H 0.96010 0.14033 0.47681 0.00000
H621 H 0.93965 0.15425 0.52976 0.00000
H622 H 0.04981 0.18799 0.49521 0.00000
H623 H 0.03033 0.19371 0.55168 0.00000
loop_
_geom_bond_atom_site_label_1
_geom_bond_atom_site_label_2
_geom_bond_distance
_geom_bond_site_symmetry_2
_ccdc_geom_bond_type
Ni0 O8 2.304 . S
Ni0 O12 2.357 . S
Ni0 O13 2.109 . S
Ni0 O14 1.981 . S
Ni0 O15 1.927 . S
Ni0 O16 2.112 . S
Ni1 O4 2.357 . S
Ni1 O5 2.109 . S
Ni1 O6 1.981 . S
Ni1 O7 1.927 . S
Ni1 O8 2.112 . S
Ni1 O16 2.304 . S
C2 O4 1.211 . D
C2 O8 1.207 . S
C3 O5 1.247 . A
C3 O6 1.275 . A
O7 C9 1.256 . A
C9 O15 1.256 . A
C10 O12 1.211 . D
C10 O16 1.207 . S
C11 O13 1.247 . A
C11 O14 1.275 . A
Ni17 O25 2.304 . S
Ni17 O29 2.357 . S
Ni17 O30 2.109 . S
Ni17 O31 1.981 . S
Ni17 O32 1.927 . S
Ni17 O33 2.112 . S
Ni18 O21 2.357 . S
Ni18 O22 2.109 . S
Ni18 O23 1.981 . S
Ni18 O24 1.927 . S
Ni18 O25 2.112 . S
Ni18 O33 2.304 . S
C19 O21 1.211 . D
C19 O25 1.207 . S
C20 O22 1.247 . A
C20 O23 1.275 . A
O24 C26 1.256 . A
C26 O32 1.256 . A
C27 O29 1.211 . D
C27 O33 1.207 . S
C28 O30 1.247 . A
C28 O31 1.275 . A
Ni34 O42 2.304 . S
Ni34 O46 2.357 . S
Ni34 O47 2.109 . S
Ni34 O48 1.981 . S
Ni34 O49 1.927 . S
Ni34 O50 2.112 . S
Ni35 O38 2.357 . S
Ni35 O39 2.109 . S
Ni35 O40 1.981 . S
Ni35 O41 1.927 . S
Ni35 O42 2.112 . S
Ni35 O50 2.304 . S
C36 O38 1.211 . D
C36 O42 1.207 . S
C37 O39 1.247 . A
C37 O40 1.275 . A
O41 C43 1.256 . A
C43 O49 1.256 . A
C44 O46 1.211 . D
C44 O50 1.207 . S
C45 O47 1.247 . A
C45 O48 1.275 . A
Ni51 O59 2.304 . S
Ni51 O63 2.357 . S
Ni51 O64 2.109 . S
Ni51 O65 1.981 . S
Ni51 O66 1.927 . S
Ni51 O67 2.112 . S
Ni52 O55 2.357 . S
Ni52 O56 2.109 . S
Ni52 O57 1.981 . S
Ni52 O58 1.927 . S
Ni52 O59 2.112 . S
Ni52 O67 2.304 . S
C53 O55 1.211 . D
C53 O59 1.207 . S
C54 O56 1.247 . A
C54 O57 1.275 . A
O58 C60 1.256 . A
C60 O66 1.256 . A
C61 O63 1.211 . D
C61 O67 1.207 . S
C62 O64 1.247 . A
C62 O65 1.275 . A
Ni68 O76 2.304 . S
Ni68 O80 2.357 . S
Ni68 O81 2.109 . S
Ni68 O82 1.981 . S
Ni68 O83 1.927 . S
Ni68 O84 2.112 . S
Ni69 O72 2.357 . S
Ni69 O73 2.109 . S
Ni69 O74 1.981 . S
Ni69 O75 1.927 . S
Ni69 O76 2.112 . S
Ni69 O84 2.304 . S
C70 O72 1.211 . D
C70 O76 1.207 . S
C71 O73 1.247 . A
C71 O74 1.275 . A
O75 C77 1.256 . A
C77 O83 1.256 . A
C78 O80 1.211 . D
C78 O84 1.207 . S
C79 O81 1.247 . A
C79 O82 1.275 . A
Ni85 O93 2.304 . S
Ni85 O97 2.357 . S
Ni85 O98 2.109 . S
Ni85 O99 1.981 . S
Ni85 O100 1.927 . S
Ni85 O101 2.112 . S
Ni86 O89 2.357 . S
Ni86 O90 2.109 . S
Ni86 O91 1.981 . S
Ni86 O92 1.927 . S
Ni86 O93 2.112 . S
Ni86 O101 2.304 . S
C87 O89 1.211 . D
C87 O93 1.207 . S
C88 O90 1.247 . A
C88 O91 1.275 . A
O92 C94 1.256 . A
C94 O100 1.256 . A
C95 O97 1.211 . D
C95 O101 1.207 . S
C96 O98 1.247 . A
C96 O99 1.275 . A
Ni102 O110 2.304 . S
Ni102 O114 2.357 . S
Ni102 O115 2.109 . S
Ni102 O116 1.981 . S
Ni102 O117 1.927 . S
Ni102 O118 2.112 . S
Ni103 O106 2.357 . S
Ni103 O107 2.109 . S
Ni103 O108 1.981 . S
Ni103 O109 1.927 . S
Ni103 O110 2.112 . S
Ni103 O118 2.304 . S
C104 O106 1.211 . D
C104 O110 1.207 . S
C105 O107 1.247 . A
C105 O108 1.275 . A
O109 C111 1.256 . A
C111 O117 1.256 . A
C112 O114 1.211 . D
C112 O118 1.207 . S
C113 O115 1.247 . A
C113 O116 1.275 . A
Ni119 O127 2.304 . S
Ni119 O131 2.357 . S
Ni119 O132 2.109 . S
Ni119 O133 1.981 . S
Ni119 O134 1.927 . S
Ni119 O135 2.112 . S
Ni120 O123 2.357 . S
Ni120 O124 2.109 . S
Ni120 O125 1.981 . S
Ni120 O126 1.927 . S
Ni120 O127 2.112 . S
Ni120 O135 2.304 . S
C121 O123 1.211 . D
C121 O127 1.207 . S
C122 O124 1.247 . A
C122 O125 1.275 . A
O126 C128 1.256 . A
C128 O134 1.256 . A
C129 O131 1.211 . D
C129 O135 1.207 . S
C130 O132 1.247 . A
C130 O133 1.275 . A
Ni136 O144 2.304 . S
Ni136 O148 2.357 . S
Ni136 O149 2.109 . S
Ni136 O150 1.981 . S
Ni136 O151 1.927 . S
Ni136 O152 2.112 . S
Ni137 O140 2.357 . S
Ni137 O141 2.109 . S
Ni137 O142 1.981 . S
Ni137 O143 1.927 . S
Ni137 O144 2.112 . S
Ni137 O152 2.304 . S
C138 O140 1.211 . D
C138 O144 1.207 . S
C139 O141 1.247 . A
C139 O142 1.275 . A
O143 C145 1.256 . A
C145 O151 1.256 . A
C146 O148 1.211 . D
C146 O152 1.207 . S
C147 O149 1.247 . A
C147 O150 1.275 . A
Ni153 O161 2.304 . S
Ni153 O165 2.357 . S
Ni153 O166 2.109 . S
Ni153 O167 1.981 . S
Ni153 O168 1.927 . S
Ni153 O169 2.112 . S
Ni154 O157 2.357 . S
Ni154 O158 2.109 . S
Ni154 O159 1.981 . S
Ni154 O160 1.927 . S
Ni154 O161 2.112 . S
Ni154 O169 2.304 . S
C155 O157 1.211 . D
C155 O161 1.207 . S
C156 O158 1.247 . A
C156 O159 1.275 . A
O160 C162 1.256 . A
C162 O168 1.256 . A
C163 O165 1.211 . D
C163 O169 1.207 . S
C164 O166 1.247 . A
C164 O167 1.275 . A
Ni170 O178 2.304 . S
Ni170 O182 2.357 . S
Ni170 O183 2.109 . S
Ni170 O184 1.981 . S
Ni170 O185 1.927 . S
Ni170 O186 2.112 . S
Ni171 O174 2.357 . S
Ni171 O175 2.109 . S
Ni171 O176 1.981 . S
Ni171 O177 1.927 . S
Ni171 O178 2.112 . S
Ni171 O186 2.304 . S
C172 O174 1.211 . D
C172 O178 1.207 . S
C173 O175 1.247 . A
C173 O176 1.275 . A
O177 C179 1.256 . A
C179 O185 1.256 . A
C180 O182 1.211 . D
C180 O186 1.207 . S
C181 O183 1.247 . A
C181 O184 1.275 . A
Ni187 O195 2.304 . S
Ni187 O199 2.357 . S
Ni187 O200 2.109 . S
Ni187 O201 1.981 . S
Ni187 O202 1.927 . S
Ni187 O203 2.112 . S
Ni188 O191 2.357 . S
Ni188 O192 2.109 . S
Ni188 O193 1.981 . S
Ni188 O194 1.927 . S
Ni188 O195 2.112 . S
Ni188 O203 2.304 . S
C189 O191 1.211 . D
C189 O195 1.207 . S
C190 O192 1.247 . A
C190 O193 1.275 . A
O194 C196 1.256 . A
C196 O202 1.256 . A
C197 O199 1.211 . D
C197 O203 1.207 . S
C198 O200 1.247 . A
C198 O201 1.275 . A
C204 C205 1.577 . A
C204 C209 1.397 . A
C204 C211 1.493 . S
C205 C206 1.544 . A
C206 C207 1.549 . A
C206 H212 1.140 . S
C207 C208 1.545 . A
C207 H213 1.140 . S
C208 C209 1.577 . A
C209 C210 1.491 . S
C210 C211 1.603 . S
C210 H214 1.140 . S
C210 H215 1.140 . S
C211 H216 1.140 . S
C211 H217 1.140 . S
C218 C219 1.577 . A
C218 C223 1.397 . A
C218 C225 1.493 . S
C219 C220 1.544 . A
C220 C221 1.549 . A
C220 H226 1.140 . S
C221 C222 1.545 . A
C221 H227 1.140 . S
C222 C223 1.577 . A
C223 C224 1.491 . S
C224 C225 1.603 . S
C224 H228 1.140 . S
C224 H229 1.140 . S
C225 H230 1.140 . S
C225 H231 1.140 . S
C232 C233 1.577 . A
C232 C237 1.397 . A
C232 C239 1.493 . S
C233 C234 1.544 . A
C234 C235 1.549 . A
C234 H240 1.140 . S
C235 C236 1.545 . A
C235 H241 1.140 . S
C236 C237 1.577 . A
C237 C238 1.491 . S
C238 C239 1.603 . S
C238 H242 1.140 . S
C238 H243 1.140 . S
C239 H244 1.140 . S
C239 H245 1.140 . S
C246 C247 1.577 . A
C246 C251 1.397 . A
C246 C253 1.493 . S
C247 C248 1.544 . A
C248 C249 1.549 . A
C248 H254 1.140 . S
C249 C250 1.545 . A
C249 H255 1.140 . S
C250 C251 1.577 . A
C251 C252 1.491 . S
C252 C253 1.603 . S
C252 H256 1.140 . S
C252 H257 1.140 . S
C253 H258 1.140 . S
C253 H259 1.140 . S
C260 C261 1.577 . A
C260 C265 1.397 . A
C260 C267 1.493 . S
C261 C262 1.544 . A
C262 C263 1.549 . A
C262 H268 1.140 . S
C263 C264 1.545 . A
C263 H269 1.140 . S
C264 C265 1.577 . A
C265 C266 1.491 . S
C266 C267 1.603 . S
C266 H270 1.140 . S
C266 H271 1.140 . S
C267 H272 1.140 . S
C267 H273 1.140 . S
C274 C275 1.577 . A
C274 C279 1.397 . A
C274 C281 1.493 . S
C275 C276 1.544 . A
C276 C277 1.549 . A
C276 H282 1.140 . S
C277 C278 1.545 . A
C277 H283 1.140 . S
C278 C279 1.577 . A
C279 C280 1.491 . S
C280 C281 1.603 . S
C280 H284 1.140 . S
C280 H285 1.140 . S
C281 H286 1.140 . S
C281 H287 1.140 . S
C288 C289 1.577 . A
C288 C293 1.397 . A
C288 C295 1.493 . S
C289 C290 1.544 . A
C290 C291 1.549 . A
C290 H296 1.140 . S
C291 C292 1.545 . A
C291 H297 1.140 . S
C292 C293 1.577 . A
C293 C294 1.491 . S
C294 C295 1.603 . S
C294 H298 1.140 . S
C294 H299 1.140 . S
C295 H300 1.140 . S
C295 H301 1.140 . S
C302 C303 1.577 . A
C302 C307 1.397 . A
C302 C309 1.493 1_554 S
C303 C304 1.544 . A
C304 C305 1.549 . A
C304 H310 1.140 . S
C305 C306 1.545 . A
C305 H311 1.140 . S
C306 C307 1.577 . A
C307 C308 1.477 1_554 S
C308 C309 1.605 . S
C308 H312 1.143 . S
C308 H313 1.145 . S
C309 H314 1.140 . S
C309 H315 1.140 . S
C316 C317 1.577 . A
C316 C321 1.397 . A
C316 C323 1.493 . S
C317 C318 1.544 . A
C318 C319 1.549 . A
C318 H324 1.140 . S
C319 C320 1.545 . A
C319 H325 1.140 . S
C320 C321 1.577 . A
C321 C322 1.491 . S
C322 C323 1.603 . S
C322 H326 1.140 . S
C322 H327 1.140 . S
C323 H328 1.140 . S
C323 H329 1.140 . S
C330 C331 1.577 . A
C330 C335 1.397 . A
C330 C337 1.493 . S
C331 C332 1.544 . A
C332 C333 1.549 . A
C332 H338 1.140 . S
C333 C334 1.545 . A
C333 H339 1.140 . S
C334 C335 1.577 . A
C335 C336 1.491 . S
C336 C337 1.603 . S
C336 H340 1.140 . S
C336 H341 1.140 . S
C337 H342 1.140 . S
C337 H343 1.140 . S
C344 C345 1.577 . A
C344 C349 1.397 . A
C344 C351 1.493 . S
C345 C346 1.544 . A
C346 C347 1.549 . A
C346 H352 1.140 . S
C347 C348 1.545 . A
C347 H353 1.140 . S
C348 C349 1.577 . A
C349 C350 1.491 . S
C350 C351 1.603 . S
C350 H354 1.140 . S
C350 H355 1.140 . S
C351 H356 1.140 . S
C351 H357 1.140 . S
C358 C359 1.577 . A
C358 C363 1.397 . A
C358 C365 1.493 . S
C359 C360 1.544 . A
C360 C361 1.549 . A
C360 H366 1.140 . S
C361 C362 1.545 . A
C361 H367 1.140 . S
C362 C363 1.577 . A
C363 C364 1.491 . S
C364 C365 1.603 . S
C364 H368 1.140 . S
C364 H369 1.140 . S
C365 H370 1.140 . S
C365 H371 1.140 . S
C372 C373 1.577 . A
C372 C377 1.397 . A
C372 C379 1.493 . S
C373 C374 1.544 . A
C374 C375 1.549 . A
C374 H380 1.140 . S
C375 C376 1.545 . A
C375 H381 1.140 . S
C376 C377 1.577 . A
C377 C378 1.491 . S
C378 C379 1.603 . S
C378 H382 1.140 . S
C378 H383 1.140 . S
C379 H384 1.140 . S
C379 H385 1.140 . S
C386 C387 1.577 . A
C386 C391 1.397 . A
C386 C393 1.493 . S
C387 C388 1.544 . A
C388 C389 1.549 . A
C388 H394 1.140 . S
C389 C390 1.545 . A
C389 H395 1.140 . S
C390 C391 1.577 . A
C391 C392 1.491 . S
C392 C393 1.603 . S
C392 H396 1.140 . S
C392 H397 1.140 . S
C393 H398 1.140 . S
C393 H399 1.140 . S
C400 C401 1.577 . A
C400 C405 1.397 . A
C400 C407 1.493 . S
C401 C402 1.544 . A
C402 C403 1.549 . A
C402 H408 1.140 . S
C403 C404 1.545 . A
C403 H409 1.140 . S
C404 C405 1.577 . A
C405 C406 1.491 . S
C406 C407 1.603 . S
C406 H410 1.140 . S
C406 H411 1.140 . S
C407 H412 1.140 . S
C407 H413 1.140 . S
C414 C415 1.577 . A
C414 C419 1.397 . A
C414 C421 1.493 . S
C415 C416 1.544 . A
C416 C417 1.549 . A
C416 H422 1.140 . S
C417 C418 1.545 . A
C417 H423 1.140 . S
C418 C419 1.577 . A
C419 C420 1.491 . S
C420 C421 1.603 . S
C420 H424 1.140 . S
C420 H425 1.140 . S
C421 H426 1.140 . S
C421 H427 1.140 . S
C428 C429 1.577 . A
C428 C433 1.397 . A
C428 C435 1.493 . S
C429 C430 1.544 . A
C430 C431 1.549 . A
C430 H436 1.140 . S
C431 C432 1.545 . A
C431 H437 1.140 . S
C432 C433 1.577 . A
C433 C434 1.491 . S
C434 C435 1.603 . S
C434 H438 1.140 . S
C434 H439 1.140 . S
C435 H440 1.140 . S
C435 H441 1.140 . S
C442 C443 1.577 . A
C442 C447 1.397 . A
C442 C449 1.493 . S
C443 C444 1.544 . A
C444 C445 1.549 . A
C444 H450 1.140 . S
C445 C446 1.545 . A
C445 H451 1.140 . S
C446 C447 1.577 . A
C447 C448 1.491 . S
C448 C449 1.603 . S
C448 H452 1.140 . S
C448 H453 1.140 . S
C449 H454 1.140 . S
C449 H455 1.140 . S
C456 C457 1.577 . A
C456 C461 1.397 1_565 A
C456 C463 1.493 . S
C457 C458 1.544 . A
C458 C459 1.549 1_565 A
C458 H464 1.140 . S
C459 C460 1.545 . A
C459 H465 1.140 . S
C460 C461 1.577 . A
C461 C462 1.491 . S
C462 C463 1.603 1_545 S
C462 H466 1.140 . S
C462 H467 1.140 . S
C463 H468 1.140 . S
C463 H469 1.140 . S
C470 C471 1.577 . A
C470 C475 1.397 1_554 A
C470 C477 1.493 . S
C471 C472 1.544 . A
C472 C473 1.549 1_554 A
C472 H478 1.140 . S
C473 C474 1.545 . A
C473 H479 1.140 . S
C474 C475 1.577 . A
C475 C476 1.491 . S
C476 C477 1.603 1_556 S
C476 H480 1.140 . S
C476 H481 1.140 . S
C477 H482 1.140 . S
C477 H483 1.140 1_554 S
C484 C485 1.577 . A
C484 C489 1.397 1_566 A
C484 C491 1.493 1_556 S
C485 C486 1.544 . A
C486 C487 1.549 1_566 A
C486 H492 1.140 . S
C487 C488 1.545 . A
C487 H493 1.140 . S
C488 C489 1.577 . A
C489 C490 1.491 . S
C490 C491 1.603 1_545 S
C490 H494 1.140 . S
C490 H495 1.140 . S
C491 H496 1.140 1_554 S
C491 H497 1.140 . S
C498 C499 1.577 . A
C498 C503 1.397 . A
C498 C505 1.493 . S
C499 C500 1.544 . A
C500 C501 1.549 . A
C500 H506 1.140 . S
C501 C502 1.545 . A
C501 H507 1.140 . S
C502 C503 1.577 . A
C503 C504 1.491 . S
C504 C505 1.603 . S
C504 H508 1.140 . S
C504 H509 1.140 . S
C505 H510 1.140 . S
C505 H511 1.140 . S
C512 C513 1.577 1_655 A
C512 C517 1.397 . A
C512 C519 1.493 . S
C513 C514 1.544 1_556 A
C514 C515 1.549 . A
C514 H520 1.140 . S
C515 C516 1.545 1_455 A
C515 H521 1.140 . S
C516 C517 1.577 1_554 A
C517 C518 1.491 . S
C518 C519 1.603 . S
C518 H522 1.140 . S
C518 H523 1.140 . S
C519 H524 1.140 . S
C519 H525 1.140 1_655 S
C526 C527 1.577 1_554 A
C526 C531 1.397 1_565 A
C526 C533 1.493 . S
C527 C528 1.544 . A
C528 C529 1.549 1_565 A
C528 H534 1.140 . S
C529 C530 1.545 1_556 A
C529 H535 1.140 . S
C530 C531 1.577 . A
C531 C532 1.491 1_545 S
C532 C533 1.603 . S
C532 H536 1.140 . S
C532 H537 1.140 . S
C533 H538 1.140 . S
C533 H539 1.140 . S
C540 C541 1.577 . A
C540 C545 1.397 . A
C540 C547 1.493 . S
C541 C542 1.549 . A
C542 C543 1.546 1_455 A
C542 H548 1.139 1_455 S
C543 C544 1.545 . A
C543 H549 1.140 . S
C544 C545 1.577 1_655 A
C545 C546 1.491 . S
C546 C547 1.603 . S
C546 H550 1.140 . S
C546 H551 1.140 1_455 S
C547 H552 1.140 . S
C547 H553 1.140 . S
C554 C555 1.577 . A
C554 C559 1.397 . A
C554 C561 1.493 . S
C555 C556 1.544 . A
C556 C557 1.549 . A
C556 H562 1.140 . S
C557 C558 1.545 . A
C557 H563 1.140 . S
C558 C559 1.577 . A
C559 C560 1.491 . S
C560 C561 1.603 . S
C560 H564 1.140 . S
C560 H565 1.140 . S
C561 H566 1.140 . S
C561 H567 1.140 . S
C568 C569 1.577 . A
C568 C573 1.397 1_655 A
C568 C575 1.493 . S
C569 C570 1.544 1_554 A
C570 C571 1.549 1_655 A
C570 H576 1.140 . S
C571 C572 1.545 . A
C571 H577 1.140 . S
C572 C573 1.577 1_556 A
C573 C574 1.491 . S
C574 C575 1.603 1_455 S
C574 H578 1.140 . S
C574 H579 1.140 . S
C575 H580 1.140 . S
C575 H581 1.140 . S
C582 C583 1.577 . A
C582 C587 1.397 1_565 A
C582 C589 1.493 . S
C583 C584 1.544 . A
C584 C585 1.549 1_565 A
C584 H590 1.140 . S
C585 C586 1.545 . A
C585 H591 1.140 . S
C586 C587 1.577 . A
C587 C588 1.491 . S
C588 C589 1.603 1_545 S
C588 H592 1.140 . S
C588 H593 1.140 . S
C589 H594 1.140 . S
C589 H595 1.140 . S
C596 C597 1.577 1_556 A
C596 C601 1.397 . A
C596 C603 1.493 . S
C597 C598 1.544 . A
C598 C599 1.549 . A
C598 H604 1.140 . S
C599 C600 1.545 1_554 A
C599 H605 1.140 . S
C600 C601 1.577 . A
C601 C602 1.491 . S
C602 C603 1.603 . S
C602 H606 1.140 . S
C602 H607 1.140 . S
C603 H608 1.140 . S
C603 H609 1.140 . S
C610 C611 1.577 . A
C610 C615 1.397 1_455 A
C610 C617 1.493 . S
C611 C612 1.544 . A
C612 C613 1.549 1_455 A
C612 H618 1.140 . S
C613 C614 1.545 . A
C613 H619 1.140 . S
C614 C615 1.577 . A
C615 C616 1.491 . S
C616 C617 1.603 1_655 S
C616 H620 1.140 . S
C616 H621 1.140 . S
C617 H622 1.140 . S
C617 H623 1.140 . S
C205 C172 1.454 . S
C208 C11 1.466 . S
C219 C197 1.483 . S
C222 C20 1.434 . S
C233 C27 1.487 . S
C236 C156 1.451 . S
C247 C129 1.488 . S
C250 C37 1.448 . S
C261 C62 1.463 . S
C264 C104 1.446 . S
C275 C44 1.483 . S
C278 C71 1.434 . S
C289 C53 1.456 . S
C292 C96 1.464 . S
C303 C113 1.460 . S
C306 C87 1.450 . S
C317 C122 1.438 . S
C320 C78 1.487 . S
C331 C147 1.464 . S
C334 C2 1.450 . S
C345 C138 1.452 . S
C348 C181 1.459 . S
C359 C190 1.444 . S
C362 C163 1.483 . S
C373 C9 1.368 . S
C376 C94 1.367 . S
C387 C26 1.374 . S
C390 C43 1.380 . S
C401 C145 1.365 . S
C404 C60 1.361 . S
C415 C77 1.374 . S
C418 C196 1.378 . S
C429 C179 1.364 . S
C432 C111 1.367 . S
C443 C128 1.373 . S
C446 C162 1.382 . S
C457 C36 1.769 . S
C460 C10 1.826 . S
C471 C61 1.825 . S
C474 C19 1.765 . S
C485 C28 1.282 . S
C488 C88 1.272 . S
C499 C70 1.768 . S
C502 C180 1.824 . S
C513 C189 1.762 . S
C516 C95 1.821 . S
C527 C155 1.767 . S
C530 C112 1.833 . S
C541 C121 1.771 . S
C544 C146 1.834 . S
C555 C45 1.281 . S
C558 C139 1.271 . S
C569 C54 1.264 . S
C572 C164 1.278 . S
C583 C130 1.279 . S
C586 C173 1.262 . S
C597 C105 1.257 . S
C600 C198 1.280 . S
C611 C79 1.281 . S
C614 C3 1.251 . S
