# Generated by pormake.
# Topology fns, (5)-cn, num edge types: 1
# Building blocks:
#     Node 0, Type 0, BuildingBlock: N583, # of connection points: 7
#     Node 1, Type 0, BuildingBlock: N583, # of connection points: 7
#     Node 2, Type 0, BuildingBlock: N583, # of connection points: 7
#     Node 3, Type 0, BuildingBlock: N583, # of connection points: 7
#     Node 4, Type 0, BuildingBlock: N583, # of connection points: 7
#     Node 5, Type 0, BuildingBlock: N583, # of connection points: 7
#     Edge 6, Type (0, 0), BuildingBlock: E11, # of connection points: 2
#     Edge 7, Type (0, 0), BuildingBlock: E11, # of connection points: 2
#     Edge 8, Type (0, 0), BuildingBlock: E11, # of connection points: 2
#     Edge 9, Type (0, 0), BuildingBlock: E11, # of connection points: 2
#     Edge 10, Type (0, 0), BuildingBlock: E11, # of connection points: 2
#     Edge 11, Type (0, 0), BuildingBlock: E11, # of connection points: 2
#     Edge 12, Type (0, 0), BuildingBlock: E11, # of connection points: 2
#     Edge 13, Type (0, 0), BuildingBlock: E11, # of connection points: 2
#     Edge 14, Type (0, 0), BuildingBlock: E11, # of connection points: 2
#     Edge 15, Type (0, 0), BuildingBlock: E11, # of connection points: 2
#     Edge 16, Type (0, 0), BuildingBlock: E11, # of connection points: 2
#     Edge 17, Type (0, 0), BuildingBlock: E11, # of connection points: 2
#     Edge 18, Type (0, 0), BuildingBlock: E11, # of connection points: 2
#     Edge 19, Type (0, 0), BuildingBlock: E11, # of connection points: 2
#     Edge 20, Type (0, 0), BuildingBlock: E11, # of connection points: 2
# Relax obj value: 0.337
# Max RMSD: 0.341
# Mean RMSD: 0.326
data_fns+N583+E11
_symmetry_space_group_name_H-M    P1
_symmetry_Int_Tables_number       1
_symmetry_cell_setting            triclinic
loop_
_symmetry_equiv_pos_as_xyz
'x, y, z'
_cell_length_a     48.309
_cell_length_b     49.036
_cell_length_c     15.391
_cell_angle_alpha  97.263
_cell_angle_beta   82.184
_cell_angle_gamma  120.224
loop_
_atom_site_label
_atom_site_type_symbol
_atom_site_fract_x
_atom_site_fract_y
_atom_site_fract_z
_atom_type_partial_charge
In0 In 0.36659 0.55940 0.80873 0.00000
In1 In 0.37866 0.52547 0.60534 0.00000
O2 O 0.37742 0.59727 0.89819 0.00000
O3 O 0.32431 0.53535 0.87862 0.00000
O4 O 0.32780 0.55273 0.75709 0.00000
O5 O 0.39207 0.59379 0.72920 0.00000
O6 O 0.40246 0.52876 0.48286 0.00000
O7 O 0.34194 0.48311 0.56899 0.00000
O8 O 0.40179 0.55811 0.86870 0.00000
O9 O 0.37323 0.50779 0.91112 0.00000
O10 O 0.33920 0.52467 0.57615 0.00000
O11 O 0.40094 0.57185 0.59918 0.00000
O12 O 0.35958 0.56910 0.02001 0.00000
O13 O 0.41475 0.51676 0.62822 0.00000
O14 O 0.38521 0.47526 0.71391 0.00000
O15 O 0.38962 0.47706 0.46367 0.00000
C16 C 0.37043 0.59463 0.98934 0.00000
C17 C 0.39931 0.53176 0.90387 0.00000
C18 C 0.30927 0.53869 0.82284 0.00000
C19 C 0.40211 0.50266 0.43228 0.00000
C20 C 0.41184 0.49524 0.68612 0.00000
C21 C 0.32502 0.49517 0.55641 0.00000
O22 O 0.37010 0.52410 0.73659 0.00000
C23 C 0.40516 0.59602 0.65057 0.00000
In24 In 0.79677 0.38138 0.31797 0.00000
In25 In 0.84090 0.39157 0.11493 0.00000
O26 O 0.76863 0.39165 0.41260 0.00000
O27 O 0.78277 0.34163 0.37647 0.00000
O28 O 0.76584 0.34099 0.25688 0.00000
O29 O 0.78364 0.40292 0.24667 0.00000
O30 O 0.85828 0.41278 0.99812 0.00000
O31 O 0.84985 0.35642 0.06716 0.00000
O32 O 0.83280 0.41892 0.38604 0.00000
O33 O 0.85922 0.39460 0.41841 0.00000
O34 O 0.80349 0.35056 0.07655 0.00000
O35 O 0.81321 0.41063 0.11712 0.00000
O36 O 0.78319 0.37845 0.52841 0.00000
O37 O 0.88503 0.42971 0.14558 0.00000
O38 O 0.90188 0.40473 0.22162 0.00000
O39 O 0.90022 0.40319 0.97239 0.00000
C40 C 0.76614 0.38684 0.50199 0.00000
C41 C 0.85879 0.41925 0.41883 0.00000
C42 C 0.76394 0.32467 0.31741 0.00000
C43 C 0.88469 0.41325 0.94564 0.00000
C44 C 0.90587 0.42977 0.20135 0.00000
C45 C 0.82072 0.33788 0.05148 0.00000
O46 O 0.83624 0.38602 0.24419 0.00000
C47 C 0.79257 0.41428 0.17117 0.00000
In48 In 0.44557 0.80150 0.54448 0.00000
In49 In 0.47733 0.84238 0.35469 0.00000
O50 O 0.40820 0.77643 0.63408 0.00000
O51 O 0.47117 0.78568 0.59185 0.00000
O52 O 0.45199 0.76866 0.46904 0.00000
O53 O 0.40950 0.79015 0.47475 0.00000
O54 O 0.47227 0.85950 0.24660 0.00000
O55 O 0.52013 0.84776 0.30253 0.00000
O56 O 0.44734 0.83901 0.62746 0.00000
O57 O 0.49913 0.86239 0.66098 0.00000
O58 O 0.47809 0.80354 0.30022 0.00000
O59 O 0.43004 0.81767 0.35420 0.00000
O60 O 0.43844 0.79013 0.74995 0.00000
O61 O 0.48617 0.88729 0.40243 0.00000
O62 O 0.52956 0.90193 0.47706 0.00000
O63 O 0.52456 0.89822 0.22872 0.00000
C64 C 0.41207 0.77444 0.72143 0.00000
C65 C 0.47453 0.86388 0.66601 0.00000
C66 C 0.46720 0.76610 0.52565 0.00000
C67 C 0.49811 0.88408 0.20053 0.00000
C68 C 0.50874 0.90745 0.46259 0.00000
C69 C 0.50787 0.81866 0.27681 0.00000
O70 O 0.48044 0.83859 0.48100 0.00000
C71 C 0.40615 0.79887 0.40393 0.00000
In72 In 0.56310 0.18971 0.65827 0.00000
In73 In 0.53519 0.14675 0.46144 0.00000
O74 O 0.59907 0.21730 0.73898 0.00000
O75 O 0.53464 0.20315 0.73588 0.00000
O76 O 0.55416 0.22018 0.61057 0.00000
O77 O 0.60027 0.20299 0.56993 0.00000
O78 O 0.54287 0.13003 0.33685 0.00000
O79 O 0.49151 0.13785 0.43641 0.00000
O80 O 0.56384 0.15417 0.71621 0.00000
O81 O 0.51165 0.12786 0.77103 0.00000
O82 O 0.53145 0.18356 0.43497 0.00000
O83 O 0.58229 0.17419 0.44408 0.00000
O84 O 0.56781 0.20254 0.86777 0.00000
O85 O 0.52951 0.10332 0.48383 0.00000
O86 O 0.48496 0.08633 0.58009 0.00000
O87 O 0.49194 0.08864 0.32940 0.00000
C88 C 0.59414 0.21948 0.83104 0.00000
C89 C 0.53737 0.12843 0.75706 0.00000
C90 C 0.53762 0.22180 0.68040 0.00000
C91 C 0.51849 0.10411 0.29185 0.00000
C92 C 0.50726 0.08260 0.54640 0.00000
C93 C 0.50195 0.16654 0.42238 0.00000
O94 O 0.53056 0.15097 0.59342 0.00000
C95 C 0.60511 0.19444 0.49006 0.00000
In96 In 0.19634 0.63633 0.24973 0.00000
In97 In 0.15523 0.62766 0.07059 0.00000
O98 O 0.22138 0.62395 0.31818 0.00000
O99 O 0.21276 0.67721 0.32390 0.00000
O100 O 0.23011 0.67499 0.19169 0.00000
O101 O 0.20760 0.61179 0.15473 0.00000
O102 O 0.13782 0.60586 0.95197 0.00000
O103 O 0.15033 0.66477 0.05136 0.00000
O104 O 0.15790 0.60121 0.32027 0.00000
O105 O 0.13459 0.62950 0.38742 0.00000
O106 O 0.19502 0.66660 0.03114 0.00000
O107 O 0.17990 0.60513 0.04068 0.00000
O108 O 0.20758 0.64039 0.45370 0.00000
O109 O 0.10936 0.59227 0.10891 0.00000
O110 O 0.09482 0.62082 0.21356 0.00000
O111 O 0.09891 0.61959 0.96240 0.00000
C112 C 0.22333 0.62971 0.40946 0.00000
C113 C 0.13276 0.60368 0.37181 0.00000
C114 C 0.23283 0.69254 0.26169 0.00000
C115 C 0.11308 0.60730 0.91785 0.00000
C116 C 0.08894 0.59478 0.18005 0.00000
C117 C 0.17996 0.68123 0.02642 0.00000
O118 O 0.15895 0.63443 0.20092 0.00000
C119 C 0.19876 0.59994 0.07790 0.00000
In120 In 0.62229 0.44131 0.94711 0.00000
In121 In 0.62346 0.45395 0.72925 0.00000
O122 O 0.60617 0.41295 0.05019 0.00000
O123 O 0.65936 0.47330 0.01476 0.00000
O124 O 0.66508 0.44542 0.90592 0.00000
O125 O 0.60328 0.39974 0.88097 0.00000
O126 O 0.60819 0.43801 0.60560 0.00000
O127 O 0.66188 0.49316 0.68302 0.00000
O128 O 0.58227 0.44573 0.99319 0.00000
O129 O 0.60652 0.49918 0.01600 0.00000
O130 O 0.66552 0.45461 0.71304 0.00000
O131 O 0.60285 0.40798 0.74121 0.00000
O132 O 0.61462 0.45201 0.15801 0.00000
O133 O 0.58495 0.46194 0.73534 0.00000
O134 O 0.60739 0.51108 0.80487 0.00000
O135 O 0.62086 0.48607 0.56342 0.00000
C136 C 0.60667 0.42428 0.13876 0.00000
C137 C 0.58141 0.47410 0.01371 0.00000
C138 C 0.67871 0.46599 0.96752 0.00000
C139 C 0.61129 0.45811 0.54300 0.00000
C140 C 0.58304 0.48785 0.78048 0.00000
C141 C 0.68033 0.48168 0.68265 0.00000
O142 O 0.62271 0.46789 0.85761 0.00000
C143 C 0.59571 0.38954 0.80234 0.00000
C144 C 0.29412 0.54403 0.94987 0.00000
C145 C 0.28648 0.53781 0.85303 0.00000
C146 C 0.26150 0.54488 0.82459 0.00000
C147 C 0.24416 0.55818 0.89299 0.00000
C148 C 0.25180 0.56440 0.98981 0.00000
C149 C 0.27678 0.55733 0.01825 0.00000
C150 C 0.23446 0.57770 0.05821 0.00000
C151 C 0.20948 0.58478 0.02977 0.00000
C152 C 0.20185 0.57856 0.93293 0.00000
C153 C 0.21919 0.56526 0.86455 0.00000
H154 H 0.25585 0.54028 0.75291 0.00000
H155 H 0.28243 0.56194 0.08994 0.00000
H156 H 0.24012 0.58231 0.12989 0.00000
H157 H 0.21353 0.56065 0.79286 0.00000
H158 H 0.31261 0.53879 0.97092 0.00000
H159 H 0.18336 0.58379 0.91188 0.00000
C160 C 0.71803 0.31185 0.31853 0.00000
C161 C 0.74428 0.30329 0.32462 0.00000
C162 C 0.73548 0.27228 0.36397 0.00000
C163 C 0.70042 0.24983 0.39725 0.00000
C164 C 0.67417 0.25840 0.39116 0.00000
C165 C 0.68298 0.28941 0.35181 0.00000
C166 C 0.63911 0.23596 0.42444 0.00000
C167 C 0.63031 0.20495 0.46380 0.00000
C168 C 0.65656 0.19638 0.46988 0.00000
C169 C 0.69161 0.21883 0.43661 0.00000
H170 H 0.75491 0.26594 0.36848 0.00000
H171 H 0.66354 0.29575 0.34730 0.00000
H172 H 0.61968 0.24230 0.41993 0.00000
H173 H 0.71105 0.21249 0.44111 0.00000
H174 H 0.72455 0.33481 0.28940 0.00000
H175 H 0.65004 0.17343 0.49902 0.00000
C176 C 0.74383 0.49241 0.96455 0.00000
C177 C 0.70789 0.47028 0.99009 0.00000
C178 C 0.69748 0.44267 0.04779 0.00000
C179 C 0.72301 0.43719 0.07996 0.00000
C180 C 0.75894 0.45932 0.05443 0.00000
C181 C 0.76935 0.48692 0.99672 0.00000
C182 C 0.78447 0.45383 0.08659 0.00000
C183 C 0.77406 0.42623 0.14430 0.00000
C184 C 0.73812 0.40410 0.16984 0.00000
C185 C 0.71259 0.40958 0.13767 0.00000
H186 H 0.67087 0.42630 0.06670 0.00000
H187 H 0.79596 0.50330 0.97782 0.00000
H188 H 0.81107 0.47021 0.06769 0.00000
H189 H 0.68599 0.39320 0.15657 0.00000
H190 H 0.75154 0.51284 0.92183 0.00000
H191 H 0.73041 0.38366 0.21255 0.00000
C192 C 0.37302 0.75067 0.35132 0.00000
C193 C 0.37956 0.78446 0.38078 0.00000
C194 C 0.35339 0.79332 0.37691 0.00000
C195 C 0.32067 0.76840 0.34358 0.00000
C196 C 0.31413 0.73462 0.31413 0.00000
C197 C 0.34031 0.72576 0.31800 0.00000
C198 C 0.28142 0.70970 0.28080 0.00000
C199 C 0.25524 0.71857 0.27693 0.00000
C200 C 0.26179 0.75235 0.30639 0.00000
C201 C 0.29450 0.77727 0.33971 0.00000
H202 H 0.35823 0.81833 0.39872 0.00000
H203 H 0.33546 0.70075 0.29619 0.00000
H204 H 0.27658 0.68470 0.25899 0.00000
H205 H 0.29934 0.80228 0.36152 0.00000
H206 H 0.39239 0.74411 0.35419 0.00000
H207 H 0.24241 0.75892 0.30352 0.00000
C208 C 0.38874 0.62657 0.61431 0.00000
C209 C 0.41691 0.62145 0.62618 0.00000
C210 C 0.45180 0.64842 0.61082 0.00000
C211 C 0.45851 0.68050 0.58359 0.00000
C212 C 0.43034 0.68561 0.57172 0.00000
C213 C 0.39545 0.65865 0.58708 0.00000
C214 C 0.43705 0.71769 0.54448 0.00000
C215 C 0.47193 0.74466 0.52912 0.00000
C216 C 0.50011 0.73954 0.54099 0.00000
C217 C 0.49339 0.70747 0.56822 0.00000
H218 H 0.47266 0.64463 0.61961 0.00000
H219 H 0.37459 0.66244 0.57829 0.00000
H220 H 0.41619 0.72148 0.53570 0.00000
H221 H 0.51425 0.70368 0.57701 0.00000
H222 H 0.36292 0.60661 0.62568 0.00000
H223 H 0.52593 0.75950 0.52962 0.00000
C224 C 0.54844 0.35376 0.74915 0.00000
C225 C 0.58129 0.36644 0.78518 0.00000
C226 C 0.59457 0.34398 0.78968 0.00000
C227 C 0.57499 0.30884 0.75814 0.00000
C228 C 0.54214 0.29616 0.72212 0.00000
C229 C 0.52886 0.31862 0.71762 0.00000
C230 C 0.52256 0.26102 0.69059 0.00000
C231 C 0.53584 0.23856 0.69508 0.00000
C232 C 0.56870 0.25125 0.73112 0.00000
C233 C 0.58827 0.28638 0.76264 0.00000
H234 H 0.61889 0.35337 0.81635 0.00000
H235 H 0.50454 0.30923 0.69095 0.00000
H236 H 0.49824 0.25164 0.66392 0.00000
H237 H 0.61259 0.29577 0.78932 0.00000
H238 H 0.53861 0.37038 0.74582 0.00000
H239 H 0.57853 0.23462 0.73445 0.00000
C240 C 0.37918 0.52567 0.02943 0.00000
C241 C 0.41039 0.52865 0.97971 0.00000
C242 C 0.43447 0.52574 0.02855 0.00000
C243 C 0.42736 0.51985 0.12711 0.00000
C244 C 0.39616 0.51687 0.17682 0.00000
C245 C 0.37207 0.51978 0.12798 0.00000
C246 C 0.38904 0.51099 0.27539 0.00000
C247 C 0.41313 0.50808 0.32423 0.00000
C248 C 0.44433 0.51105 0.27451 0.00000
C249 C 0.45144 0.51694 0.17596 0.00000
H250 H 0.45757 0.52794 0.99175 0.00000
H251 H 0.34897 0.51758 0.16479 0.00000
H252 H 0.36595 0.50878 0.31219 0.00000
H253 H 0.47454 0.51914 0.13915 0.00000
H254 H 0.36135 0.52782 0.99327 0.00000
H255 H 0.46216 0.50890 0.31067 0.00000
C256 C 0.85612 0.42802 0.84214 0.00000
C257 C 0.88441 0.42204 0.84404 0.00000
C258 C 0.90385 0.42008 0.75782 0.00000
C259 C 0.89499 0.42410 0.66970 0.00000
C260 C 0.86670 0.43008 0.66780 0.00000
C261 C 0.84726 0.43204 0.75402 0.00000
C262 C 0.85784 0.43410 0.57968 0.00000
C263 C 0.87728 0.43214 0.49347 0.00000
C264 C 0.90558 0.42616 0.49537 0.00000
C265 C 0.91443 0.42214 0.58349 0.00000
H266 H 0.92479 0.41565 0.75923 0.00000
H267 H 0.82632 0.43646 0.75261 0.00000
H268 H 0.83690 0.43852 0.57828 0.00000
H269 H 0.93538 0.41771 0.58490 0.00000
H270 H 0.84173 0.42947 0.90596 0.00000
H271 H 0.91997 0.42471 0.43155 0.00000
C272 C 0.44515 0.88050 0.80455 0.00000
C273 C 0.47373 0.87944 0.74940 0.00000
C274 C 0.50073 0.88058 0.79535 0.00000
C275 C 0.49915 0.88279 0.89644 0.00000
C276 C 0.47057 0.88385 0.95158 0.00000
C277 C 0.44358 0.88271 0.90563 0.00000
C278 C 0.46899 0.88606 0.05267 0.00000
C279 C 0.49599 0.88720 0.09862 0.00000
C280 C 0.52457 0.88614 0.04347 0.00000
C281 C 0.52615 0.88393 0.94239 0.00000
H282 H 0.52188 0.87979 0.75454 0.00000
H283 H 0.42242 0.88350 0.94645 0.00000
H284 H 0.44784 0.88685 0.09348 0.00000
H285 H 0.54730 0.88314 0.90157 0.00000
H286 H 0.42517 0.87966 0.77053 0.00000
H287 H 0.54455 0.88698 0.07748 0.00000
C288 C 0.49372 0.10645 0.16370 0.00000
C289 C 0.52103 0.10196 0.18780 0.00000
C290 C 0.54616 0.10130 0.11568 0.00000
C291 C 0.54399 0.10513 0.01945 0.00000
C292 C 0.51669 0.10961 0.99537 0.00000
C293 C 0.49156 0.11028 0.06749 0.00000
C294 C 0.51452 0.11344 0.89914 0.00000
C295 C 0.53966 0.11278 0.82702 0.00000
C296 C 0.56696 0.10829 0.85112 0.00000
C297 C 0.56913 0.10447 0.94733 0.00000
H298 H 0.56637 0.09797 0.13351 0.00000
H299 H 0.47134 0.11360 0.04965 0.00000
H300 H 0.49431 0.11677 0.88131 0.00000
H301 H 0.58934 0.10114 0.96517 0.00000
H302 H 0.47512 0.10693 0.21710 0.00000
H303 H 0.58557 0.10781 0.79772 0.00000
C304 C 0.08302 0.59119 0.48558 0.00000
C305 C 0.11402 0.59054 0.44911 0.00000
C306 C 0.13694 0.59223 0.51266 0.00000
C307 C 0.12886 0.59455 0.61268 0.00000
C308 C 0.09787 0.59519 0.64914 0.00000
C309 C 0.07496 0.59351 0.58558 0.00000
C310 C 0.08980 0.59752 0.74915 0.00000
C311 C 0.11272 0.59920 0.81271 0.00000
C312 C 0.14371 0.59856 0.77624 0.00000
C313 C 0.15178 0.59623 0.67623 0.00000
H314 H 0.15987 0.59175 0.48568 0.00000
H315 H 0.05201 0.59399 0.61258 0.00000
H316 H 0.06686 0.59799 0.77614 0.00000
H317 H 0.17472 0.59576 0.64924 0.00000
H318 H 0.06606 0.58994 0.43853 0.00000
H319 H 0.16068 0.59981 0.82328 0.00000
C320 C 0.57330 0.44874 0.47995 0.00000
C321 C 0.60436 0.45341 0.51187 0.00000
C322 C 0.62780 0.44647 0.44768 0.00000
C323 C 0.62016 0.43486 0.35158 0.00000
C324 C 0.58910 0.43019 0.31967 0.00000
C325 C 0.56567 0.43713 0.38386 0.00000
C326 C 0.58147 0.41858 0.22357 0.00000
C327 C 0.60490 0.41164 0.15939 0.00000
C328 C 0.63597 0.41632 0.19131 0.00000
C329 C 0.64360 0.42792 0.28740 0.00000
H330 H 0.65079 0.44993 0.47130 0.00000
H331 H 0.54267 0.43367 0.36023 0.00000
H332 H 0.55848 0.41512 0.19995 0.00000
H333 H 0.66659 0.43138 0.31103 0.00000
H334 H 0.55595 0.45387 0.52746 0.00000
H335 H 0.65331 0.41118 0.14380 0.00000
C336 C 0.52180 0.47268 0.86164 0.00000
C337 C 0.54838 0.48706 0.78658 0.00000
C338 C 0.54256 0.50017 0.70936 0.00000
C339 C 0.51015 0.49890 0.70720 0.00000
C340 C 0.48357 0.48452 0.78225 0.00000
C341 C 0.48939 0.47141 0.85947 0.00000
C342 C 0.45116 0.48325 0.78009 0.00000
C343 C 0.44533 0.49636 0.70286 0.00000
C344 C 0.47192 0.51075 0.62781 0.00000
C345 C 0.50432 0.51201 0.62998 0.00000
H346 H 0.56223 0.51082 0.65381 0.00000
H347 H 0.46971 0.46076 0.91503 0.00000
H348 H 0.43148 0.47261 0.83564 0.00000
H349 H 0.52400 0.52266 0.57442 0.00000
H350 H 0.52611 0.46297 0.91880 0.00000
H351 H 0.46761 0.52045 0.57065 0.00000
C352 C 0.96290 0.44733 0.21428 0.00000
C353 C 0.93757 0.45772 0.21628 0.00000
C354 C 0.94825 0.49298 0.21366 0.00000
C355 C 0.98427 0.51786 0.20903 0.00000
C356 C 0.00960 0.50747 0.20702 0.00000
C357 C 0.99892 0.47220 0.20965 0.00000
C358 C 0.04562 0.53234 0.20239 0.00000
C359 C 0.05630 0.56760 0.19977 0.00000
C360 C 0.03096 0.57799 0.20177 0.00000
C361 C 0.99495 0.55312 0.20640 0.00000
H362 H 0.92950 0.50068 0.21514 0.00000
H363 H 0.01767 0.46451 0.20816 0.00000
H364 H 0.06437 0.52465 0.20091 0.00000
H365 H 0.97619 0.56081 0.20789 0.00000
H366 H 0.95500 0.42123 0.21622 0.00000
H367 H 0.03887 0.60410 0.19983 0.00000
C368 C 0.54715 0.06063 0.54381 0.00000
C369 C 0.51229 0.05420 0.55066 0.00000
C370 C 0.48427 0.01999 0.54169 0.00000
C371 C 0.49111 0.99221 0.52586 0.00000
C372 C 0.52596 0.99863 0.51901 0.00000
C373 C 0.55398 0.03284 0.52798 0.00000
C374 C 0.53280 0.97085 0.50318 0.00000
C375 C 0.50478 0.93664 0.49420 0.00000
C376 C 0.46992 0.93022 0.50106 0.00000
C377 C 0.46309 0.95800 0.51688 0.00000
H378 H 0.45847 0.01524 0.54676 0.00000
H379 H 0.57979 0.03760 0.52291 0.00000
H380 H 0.55860 0.97561 0.49810 0.00000
H381 H 0.43728 0.95325 0.52196 0.00000
H382 H 0.56789 0.08595 0.55045 0.00000
H383 H 0.44918 0.90489 0.49441 0.00000
loop_
_geom_bond_atom_site_label_1
_geom_bond_atom_site_label_2
_geom_bond_distance
_geom_bond_site_symmetry_2
_ccdc_geom_bond_type
In0 O2 2.047 . S
In0 O3 2.004 . S
In0 O4 1.993 . S
In0 O5 1.970 . S
In0 O8 2.073 . S
In0 O22 2.004 . S
In1 O6 2.050 . S
In1 O7 2.011 . S
In1 O10 1.998 . S
In1 O11 1.975 . S
In1 O13 2.074 . S
In1 O22 2.009 . S
O2 C16 1.404 . S
O3 C18 1.272 . A
O4 C18 1.268 . A
O5 C23 1.278 . A
O6 C19 1.405 . S
O7 C21 1.270 . A
O8 C17 1.407 . S
O9 C17 1.218 . D
O10 C21 1.266 . A
O11 C23 1.279 . A
O12 C16 1.219 1_554 D
O13 C20 1.408 . S
O14 C20 1.219 . D
O15 C19 1.218 . D
In24 O26 2.047 . S
In24 O27 2.004 . S
In24 O28 1.993 . S
In24 O29 1.970 . S
In24 O32 2.073 . S
In24 O46 2.004 . S
In25 O30 2.050 1_554 S
In25 O31 2.011 . S
In25 O34 1.998 . S
In25 O35 1.975 . S
In25 O37 2.074 . S
In25 O46 2.009 . S
O26 C40 1.404 . S
O27 C42 1.272 . A
O28 C42 1.268 . A
O29 C47 1.278 . A
O30 C43 1.405 . S
O31 C45 1.270 . A
O32 C41 1.407 . S
O33 C41 1.218 . D
O34 C45 1.266 . A
O35 C47 1.279 . A
O36 C40 1.219 . D
O37 C44 1.408 . S
O38 C44 1.219 . D
O39 C43 1.218 . D
In48 O50 2.047 . S
In48 O51 2.004 . S
In48 O52 1.993 . S
In48 O53 1.970 . S
In48 O56 2.073 . S
In48 O70 2.004 . S
In49 O54 2.050 . S
In49 O55 2.011 . S
In49 O58 1.998 . S
In49 O59 1.975 . S
In49 O61 2.074 . S
In49 O70 2.009 . S
O50 C64 1.404 . S
O51 C66 1.272 . A
O52 C66 1.268 . A
O53 C71 1.278 . A
O54 C67 1.405 . S
O55 C69 1.270 . A
O56 C65 1.407 . S
O57 C65 1.218 . D
O58 C69 1.266 . A
O59 C71 1.279 . A
O60 C64 1.219 . D
O61 C68 1.408 . S
O62 C68 1.219 . D
O63 C67 1.218 . D
In72 O74 2.047 . S
In72 O75 2.004 . S
In72 O76 1.993 . S
In72 O77 1.970 . S
In72 O80 2.073 . S
In72 O94 2.004 . S
In73 O78 2.050 . S
In73 O79 2.011 . S
In73 O82 1.998 . S
In73 O83 1.975 . S
In73 O85 2.074 . S
In73 O94 2.009 . S
O74 C88 1.404 . S
O75 C90 1.272 . A
O76 C90 1.268 . A
O77 C95 1.278 . A
O78 C91 1.405 . S
O79 C93 1.270 . A
O80 C89 1.407 . S
O81 C89 1.218 . D
O82 C93 1.266 . A
O83 C95 1.279 . A
O84 C88 1.219 . D
O85 C92 1.408 . S
O86 C92 1.219 . D
O87 C91 1.218 . D
In96 O98 2.047 . S
In96 O99 2.004 . S
In96 O100 1.993 . S
In96 O101 1.970 . S
In96 O104 2.073 . S
In96 O118 2.004 . S
In97 O102 2.050 1_554 S
In97 O103 2.011 . S
In97 O106 1.998 . S
In97 O107 1.975 . S
In97 O109 2.074 . S
In97 O118 2.009 . S
O98 C112 1.404 . S
O99 C114 1.272 . A
O100 C114 1.268 . A
O101 C119 1.278 . A
O102 C115 1.405 . S
O103 C117 1.270 . A
O104 C113 1.407 . S
O105 C113 1.218 . D
O106 C117 1.266 . A
O107 C119 1.279 . A
O108 C112 1.219 . D
O109 C116 1.408 . S
O110 C116 1.219 . D
O111 C115 1.218 . D
In120 O122 2.047 1_556 S
In120 O123 2.004 1_556 S
In120 O124 1.993 . S
In120 O125 1.970 . S
In120 O128 2.073 . S
In120 O142 2.004 . S
In121 O126 2.050 . S
In121 O127 2.011 . S
In121 O130 1.998 . S
In121 O131 1.975 . S
In121 O133 2.074 . S
In121 O142 2.009 . S
O122 C136 1.404 . S
O123 C138 1.272 1_554 A
O124 C138 1.268 . A
O125 C143 1.278 . A
O126 C139 1.405 . S
O127 C141 1.270 . A
O128 C137 1.407 1_556 S
O129 C137 1.218 . D
O130 C141 1.266 . A
O131 C143 1.279 . A
O132 C136 1.219 . D
O133 C140 1.408 . S
O134 C140 1.219 . D
O135 C139 1.218 . D
C144 C145 1.540 . A
C144 C149 1.540 1_556 A
C144 H158 1.140 . S
C145 C146 1.540 . A
C146 C147 1.540 . A
C146 H154 1.140 . S
C147 C148 1.540 . A
C147 C153 1.540 . A
C148 C149 1.540 1_556 A
C148 C150 1.540 1_556 A
C149 H155 1.140 . S
C150 C151 1.540 . A
C150 H156 1.140 . S
C151 C152 1.540 1_554 A
C152 C153 1.540 . A
C152 H159 1.140 . S
C153 H157 1.140 . S
C160 C161 1.540 . A
C160 C165 1.540 . A
C160 H174 1.140 . S
C161 C162 1.540 . A
C162 C163 1.540 . A
C162 H170 1.140 . S
C163 C164 1.540 . A
C163 C169 1.540 . A
C164 C165 1.540 . A
C164 C166 1.540 . A
C165 H171 1.140 . S
C166 C167 1.540 . A
C166 H172 1.140 . S
C167 C168 1.540 . A
C168 C169 1.540 . A
C168 H175 1.140 . S
C169 H173 1.140 . S
C176 C177 1.540 . A
C176 C181 1.540 . A
C176 H190 1.140 . S
C177 C178 1.540 1_556 A
C178 C179 1.540 . A
C178 H186 1.140 . S
C179 C180 1.540 . A
C179 C185 1.540 . A
C180 C181 1.540 1_554 A
C180 C182 1.540 . A
C181 H187 1.140 . S
C182 C183 1.540 . A
C182 H188 1.140 . S
C183 C184 1.540 . A
C184 C185 1.540 . A
C184 H191 1.140 . S
C185 H189 1.140 . S
C192 C193 1.540 . A
C192 C197 1.540 . A
C192 H206 1.140 . S
C193 C194 1.540 . A
C194 C195 1.540 . A
C194 H202 1.140 . S
C195 C196 1.540 . A
C195 C201 1.540 . A
C196 C197 1.540 . A
C196 C198 1.540 . A
C197 H203 1.140 . S
C198 C199 1.540 . A
C198 H204 1.140 . S
C199 C200 1.540 . A
C200 C201 1.540 . A
C200 H207 1.140 . S
C201 H205 1.140 . S
C208 C209 1.540 . A
C208 C213 1.540 . A
C208 H222 1.140 . S
C209 C210 1.540 . A
C210 C211 1.540 . A
C210 H218 1.140 . S
C211 C212 1.540 . A
C211 C217 1.540 . A
C212 C213 1.540 . A
C212 C214 1.540 . A
C213 H219 1.140 . S
C214 C215 1.540 . A
C214 H220 1.140 . S
C215 C216 1.540 . A
C216 C217 1.540 . A
C216 H223 1.140 . S
C217 H221 1.140 . S
C224 C225 1.540 . A
C224 C229 1.540 . A
C224 H238 1.140 . S
C225 C226 1.540 . A
C226 C227 1.540 . A
C226 H234 1.140 . S
C227 C228 1.540 . A
C227 C233 1.540 . A
C228 C229 1.540 . A
C228 C230 1.540 . A
C229 H235 1.140 . S
C230 C231 1.540 . A
C230 H236 1.140 . S
C231 C232 1.540 . A
C232 C233 1.540 . A
C232 H239 1.140 . S
C233 H237 1.140 . S
C240 C241 1.540 1_554 A
C240 C245 1.540 . A
C240 H254 1.140 1_554 S
C241 C242 1.540 1_556 A
C242 C243 1.540 . A
C242 H250 1.140 1_554 S
C243 C244 1.540 . A
C243 C249 1.540 . A
C244 C245 1.540 . A
C244 C246 1.540 . A
C245 H251 1.140 . S
C246 C247 1.540 . A
C246 H252 1.140 . S
C247 C248 1.540 . A
C248 C249 1.540 . A
C248 H255 1.140 . S
C249 H253 1.140 . S
C256 C257 1.540 . A
C256 C261 1.540 . A
C256 H270 1.140 . S
C257 C258 1.540 . A
C258 C259 1.540 . A
C258 H266 1.140 . S
C259 C260 1.540 . A
C259 C265 1.540 . A
C260 C261 1.540 . A
C260 C262 1.540 . A
C261 H267 1.140 . S
C262 C263 1.540 . A
C262 H268 1.140 . S
C263 C264 1.540 . A
C264 C265 1.540 . A
C264 H271 1.140 . S
C265 H269 1.140 . S
C272 C273 1.540 . A
C272 C277 1.540 . A
C272 H286 1.140 . S
C273 C274 1.540 . A
C274 C275 1.540 . A
C274 H282 1.140 . S
C275 C276 1.540 . A
C275 C281 1.540 . A
C276 C277 1.540 . A
C276 C278 1.540 1_556 A
C277 H283 1.140 . S
C278 C279 1.540 . A
C278 H284 1.140 . S
C279 C280 1.540 . A
C280 C281 1.540 1_554 A
C280 H287 1.140 . S
C281 H285 1.140 . S
C288 C289 1.540 . A
C288 C293 1.540 . A
C288 H302 1.140 . S
C289 C290 1.540 . A
C290 C291 1.540 . A
C290 H298 1.140 . S
C291 C292 1.540 1_554 A
C291 C297 1.540 1_554 A
C292 C293 1.540 1_556 A
C292 C294 1.540 . A
C293 H299 1.140 . S
C294 C295 1.540 . A
C294 H300 1.140 . S
C295 C296 1.540 . A
C296 C297 1.540 . A
C296 H303 1.140 . S
C297 H301 1.140 . S
C304 C305 1.540 . A
C304 C309 1.540 . A
C304 H318 1.140 . S
C305 C306 1.540 . A
C306 C307 1.540 . A
C306 H314 1.140 . S
C307 C308 1.540 . A
C307 C313 1.540 . A
C308 C309 1.540 . A
C308 C310 1.540 . A
C309 H315 1.140 . S
C310 C311 1.540 . A
C310 H316 1.140 . S
C311 C312 1.540 . A
C312 C313 1.540 . A
C312 H319 1.140 . S
C313 H317 1.140 . S
C320 C321 1.540 . A
C320 C325 1.540 . A
C320 H334 1.140 . S
C321 C322 1.540 . A
C322 C323 1.540 . A
C322 H330 1.140 . S
C323 C324 1.540 . A
C323 C329 1.540 . A
C324 C325 1.540 . A
C324 C326 1.540 . A
C325 H331 1.140 . S
C326 C327 1.540 . A
C326 H332 1.140 . S
C327 C328 1.540 . A
C328 C329 1.540 . A
C328 H335 1.140 . S
C329 H333 1.140 . S
C336 C337 1.540 . A
C336 C341 1.540 . A
C336 H350 1.140 . S
C337 C338 1.540 . A
C338 C339 1.540 . A
C338 H346 1.140 . S
C339 C340 1.540 . A
C339 C345 1.540 . A
C340 C341 1.540 . A
C340 C342 1.540 . A
C341 H347 1.140 . S
C342 C343 1.540 . A
C342 H348 1.140 . S
C343 C344 1.540 . A
C344 C345 1.540 . A
C344 H351 1.140 . S
C345 H349 1.140 . S
C352 C353 1.540 . A
C352 C357 1.540 . A
C352 H366 1.140 . S
C353 C354 1.540 . A
C354 C355 1.540 . A
C354 H362 1.140 . S
C355 C356 1.540 1_655 A
C355 C361 1.540 . A
C356 C357 1.540 1_455 A
C356 C358 1.540 . A
C357 H363 1.140 1_655 S
C358 C359 1.540 . A
C358 H364 1.140 . S
C359 C360 1.540 . A
C360 C361 1.540 1_455 A
C360 H367 1.140 . S
C361 H365 1.140 . S
C368 C369 1.540 . A
C368 C373 1.540 . A
C368 H382 1.140 . S
C369 C370 1.540 . A
C370 C371 1.540 1_545 A
C370 H378 1.140 . S
C371 C372 1.540 . A
C371 C377 1.540 . A
C372 C373 1.540 1_565 A
C372 C374 1.540 . A
C373 H379 1.140 . S
C374 C375 1.540 . A
C374 H380 1.140 . S
C375 C376 1.540 . A
C376 C377 1.540 . A
C376 H383 1.140 . S
C377 H381 1.140 . S
C145 C18 1.117 . S
C151 C119 1.230 . S
C161 C42 1.006 . S
C167 C95 1.094 . S
C177 C138 1.403 . S
C183 C47 1.415 . S
C193 C71 1.193 . S
C199 C114 1.208 . S
C209 C23 1.169 . S
C215 C66 1.192 . S
C225 C143 1.009 . S
C231 C90 0.868 . S
C241 C17 1.403 . S
C247 C19 1.688 . S
C257 C43 1.677 . S
C263 C41 1.430 . S
C273 C65 1.414 . S
C279 C67 1.617 . S
C289 C91 1.584 . S
C295 C89 1.445 . S
C305 C113 1.401 . S
C311 C115 1.617 . S
C321 C139 0.577 . S
C327 C136 0.694 . S
C337 C140 1.645 . S
C343 C20 1.645 . S
C353 C44 1.476 . S
C359 C116 1.487 . S
C369 C92 1.540 . S
C375 C68 1.548 . S
