# Generated by pormake.
# Topology fob, (5)-cn, num edge types: 1
# Building blocks:
#     Node 0, Type 0, BuildingBlock: N391, # of connection points: 5
#     Node 1, Type 0, BuildingBlock: N391, # of connection points: 5
#     Node 2, Type 0, BuildingBlock: N391, # of connection points: 5
#     Node 3, Type 0, BuildingBlock: N391, # of connection points: 5
#     Node 4, Type 0, BuildingBlock: N391, # of connection points: 5
#     Node 5, Type 0, BuildingBlock: N391, # of connection points: 5
#     Node 6, Type 0, BuildingBlock: N391, # of connection points: 5
#     Node 7, Type 0, BuildingBlock: N391, # of connection points: 5
#     Node 8, Type 0, BuildingBlock: N391, # of connection points: 5
#     Node 9, Type 0, BuildingBlock: N391, # of connection points: 5
#     Node 10, Type 0, BuildingBlock: N391, # of connection points: 5
#     Node 11, Type 0, BuildingBlock: N391, # of connection points: 5
#     Node 12, Type 0, BuildingBlock: N391, # of connection points: 5
#     Node 13, Type 0, BuildingBlock: N391, # of connection points: 5
#     Node 14, Type 0, BuildingBlock: N391, # of connection points: 5
#     Node 15, Type 0, BuildingBlock: N391, # of connection points: 5
#     Edge 16, Type (0, 0), BuildingBlock: E162, # of connection points: 2
#     Edge 17, Type (0, 0), BuildingBlock: E162, # of connection points: 2
#     Edge 18, Type (0, 0), BuildingBlock: E162, # of connection points: 2
#     Edge 19, Type (0, 0), BuildingBlock: E162, # of connection points: 2
#     Edge 20, Type (0, 0), BuildingBlock: E162, # of connection points: 2
#     Edge 21, Type (0, 0), BuildingBlock: E162, # of connection points: 2
#     Edge 22, Type (0, 0), BuildingBlock: E162, # of connection points: 2
#     Edge 23, Type (0, 0), BuildingBlock: E162, # of connection points: 2
#     Edge 24, Type (0, 0), BuildingBlock: E162, # of connection points: 2
#     Edge 25, Type (0, 0), BuildingBlock: E162, # of connection points: 2
#     Edge 26, Type (0, 0), BuildingBlock: E162, # of connection points: 2
#     Edge 27, Type (0, 0), BuildingBlock: E162, # of connection points: 2
#     Edge 28, Type (0, 0), BuildingBlock: E162, # of connection points: 2
#     Edge 29, Type (0, 0), BuildingBlock: E162, # of connection points: 2
#     Edge 30, Type (0, 0), BuildingBlock: E162, # of connection points: 2
#     Edge 31, Type (0, 0), BuildingBlock: E162, # of connection points: 2
#     Edge 32, Type (0, 0), BuildingBlock: E162, # of connection points: 2
#     Edge 33, Type (0, 0), BuildingBlock: E162, # of connection points: 2
#     Edge 34, Type (0, 0), BuildingBlock: E162, # of connection points: 2
#     Edge 35, Type (0, 0), BuildingBlock: E162, # of connection points: 2
#     Edge 36, Type (0, 0), BuildingBlock: E162, # of connection points: 2
#     Edge 37, Type (0, 0), BuildingBlock: E162, # of connection points: 2
#     Edge 38, Type (0, 0), BuildingBlock: E162, # of connection points: 2
#     Edge 39, Type (0, 0), BuildingBlock: E162, # of connection points: 2
#     Edge 40, Type (0, 0), BuildingBlock: E162, # of connection points: 2
#     Edge 41, Type (0, 0), BuildingBlock: E162, # of connection points: 2
#     Edge 42, Type (0, 0), BuildingBlock: E162, # of connection points: 2
#     Edge 43, Type (0, 0), BuildingBlock: E162, # of connection points: 2
#     Edge 44, Type (0, 0), BuildingBlock: E162, # of connection points: 2
#     Edge 45, Type (0, 0), BuildingBlock: E162, # of connection points: 2
#     Edge 46, Type (0, 0), BuildingBlock: E162, # of connection points: 2
#     Edge 47, Type (0, 0), BuildingBlock: E162, # of connection points: 2
#     Edge 48, Type (0, 0), BuildingBlock: E162, # of connection points: 2
#     Edge 49, Type (0, 0), BuildingBlock: E162, # of connection points: 2
#     Edge 50, Type (0, 0), BuildingBlock: E162, # of connection points: 2
#     Edge 51, Type (0, 0), BuildingBlock: E162, # of connection points: 2
#     Edge 52, Type (0, 0), BuildingBlock: E162, # of connection points: 2
#     Edge 53, Type (0, 0), BuildingBlock: E162, # of connection points: 2
#     Edge 54, Type (0, 0), BuildingBlock: E162, # of connection points: 2
#     Edge 55, Type (0, 0), BuildingBlock: E162, # of connection points: 2
# Relax obj value: 0.081
# Max RMSD: 0.139
# Mean RMSD: 0.139
data_fob+N391+E162
_symmetry_space_group_name_H-M    P1
_symmetry_Int_Tables_number       1
_symmetry_cell_setting            triclinic
loop_
_symmetry_equiv_pos_as_xyz
'x, y, z'
_cell_length_a     14.787
_cell_length_b     42.986
_cell_length_c     36.022
_cell_angle_alpha  90.000
_cell_angle_beta   109.144
_cell_angle_gamma  90.000
loop_
_atom_site_label
_atom_site_type_symbol
_atom_site_fract_x
_atom_site_fract_y
_atom_site_fract_z
_atom_type_partial_charge
Cu0 Cu 0.16274 0.60270 0.24914 0.00000
Cu1 Cu 0.04102 0.66903 0.20306 0.00000
Cu2 Cu 0.02811 0.63944 0.27947 0.00000
Cu3 Cu 0.11003 0.57741 0.32491 0.00000
C4 C 0.27965 0.61974 0.32812 0.00000
C5 C 0.11147 0.61906 0.16419 0.00000
O6 O 0.94508 0.63263 0.31050 0.00000
O7 O 0.00275 0.58917 0.34356 0.00000
O8 O 0.18800 0.55915 0.24780 0.00000
O9 O 0.16799 0.54294 0.30393 0.00000
O10 O 0.02609 0.68326 0.29186 0.00000
O11 O 0.02831 0.70343 0.23496 0.00000
C12 C 0.94452 0.61083 0.33365 0.00000
C13 C 0.18235 0.53853 0.27188 0.00000
O14 O 0.28259 0.61175 0.29474 0.00000
O15 O 0.20828 0.61669 0.33935 0.00000
C16 C 0.03293 0.70550 0.27028 0.00000
O17 O 0.05103 0.59539 0.27371 0.00000
O18 O 0.11958 0.64600 0.24935 0.00000
O19 O 0.14489 0.60117 0.19200 0.00000
O20 O 0.06471 0.64322 0.16426 0.00000
Cu21 Cu 0.91274 0.39730 0.99990 0.00000
Cu22 Cu 0.79102 0.33096 0.95306 0.00000
Cu23 Cu 0.77811 0.36056 0.02947 0.00000
Cu24 Cu 0.86003 0.42259 0.07491 0.00000
C25 C 0.02965 0.38025 0.07811 0.00000
C26 C 0.86147 0.38094 0.91419 0.00000
O27 O 0.69508 0.36737 0.06050 0.00000
O28 O 0.75275 0.41082 0.09355 0.00000
O29 O 0.93800 0.44084 0.99779 0.00000
O30 O 0.91798 0.45706 0.05393 0.00000
O31 O 0.77609 0.31673 0.04186 0.00000
O32 O 0.77831 0.29656 0.98495 0.00000
C33 C 0.69452 0.38917 0.08364 0.00000
C34 C 0.93235 0.46146 0.02188 0.00000
O35 O 0.03259 0.38825 0.04474 0.00000
O36 O 0.95828 0.38331 0.08934 0.00000
C37 C 0.78293 0.29450 0.02028 0.00000
O38 O 0.80103 0.40460 0.02371 0.00000
O39 O 0.86958 0.35400 0.99990 0.00000
O40 O 0.89489 0.39883 0.94200 0.00000
O41 O 0.81471 0.35678 0.91426 0.00000
Cu42 Cu 0.16274 0.10270 0.74914 0.00000
Cu43 Cu 0.04102 0.16904 0.70306 0.00000
Cu44 Cu 0.02811 0.13944 0.77947 0.00000
Cu45 Cu 0.11003 0.07741 0.82491 0.00000
C46 C 0.27965 0.11975 0.82811 0.00000
C47 C 0.11147 0.11906 0.66419 0.00000
O48 O 0.94508 0.13263 0.81050 0.00000
O49 O 0.00275 0.08918 0.84355 0.00000
O50 O 0.18800 0.05916 0.74779 0.00000
O51 O 0.16799 0.04294 0.80393 0.00000
O52 O 0.02609 0.18327 0.79186 0.00000
O53 O 0.02831 0.20344 0.73495 0.00000
C54 C 0.94452 0.11083 0.83364 0.00000
C55 C 0.18235 0.03854 0.77188 0.00000
O56 O 0.28259 0.11176 0.79474 0.00000
O57 O 0.20828 0.11669 0.83934 0.00000
C58 C 0.03294 0.20550 0.77028 0.00000
O59 O 0.05103 0.09540 0.77370 0.00000
O60 O 0.11959 0.14600 0.74935 0.00000
O61 O 0.14489 0.10117 0.69200 0.00000
O62 O 0.06471 0.14322 0.66426 0.00000
Cu63 Cu 0.91274 0.89730 0.49914 0.00000
Cu64 Cu 0.79102 0.83096 0.45306 0.00000
Cu65 Cu 0.77811 0.86056 0.52947 0.00000
Cu66 Cu 0.86003 0.92259 0.57491 0.00000
C67 C 0.02965 0.88026 0.57811 0.00000
C68 C 0.86147 0.88094 0.41419 0.00000
O69 O 0.69508 0.86737 0.56050 0.00000
O70 O 0.75275 0.91083 0.59355 0.00000
O71 O 0.93800 0.94084 0.49779 0.00000
O72 O 0.91799 0.95706 0.55393 0.00000
O73 O 0.77609 0.81674 0.54186 0.00000
O74 O 0.77831 0.79656 0.48495 0.00000
C75 C 0.69452 0.88917 0.58365 0.00000
C76 C 0.93235 0.96146 0.52188 0.00000
O77 O 0.03259 0.88825 0.54474 0.00000
O78 O 0.95828 0.88331 0.58935 0.00000
C79 C 0.78293 0.79450 0.52028 0.00000
O80 O 0.80103 0.90460 0.52371 0.00000
O81 O 0.86958 0.85400 0.49935 0.00000
O82 O 0.89489 0.89883 0.44200 0.00000
O83 O 0.81471 0.85678 0.41426 0.00000
Cu84 Cu 0.08726 0.10270 0.50086 0.00000
Cu85 Cu 0.20898 0.16904 0.54694 0.00000
Cu86 Cu 0.22189 0.13944 0.47053 0.00000
Cu87 Cu 0.13997 0.07741 0.42509 0.00000
C88 C 0.97035 0.11974 0.42189 0.00000
C89 C 0.13853 0.11906 0.58581 0.00000
O90 O 0.30492 0.13263 0.43950 0.00000
O91 O 0.24725 0.08917 0.40645 0.00000
O92 O 0.06200 0.05916 0.50221 0.00000
O93 O 0.08201 0.04294 0.44607 0.00000
O94 O 0.22391 0.18326 0.45814 0.00000
O95 O 0.22169 0.20344 0.51505 0.00000
C96 C 0.30548 0.11083 0.41636 0.00000
C97 C 0.06765 0.03853 0.47812 0.00000
O98 O 0.96741 0.11175 0.45526 0.00000
O99 O 0.04172 0.11669 0.41066 0.00000
C100 C 0.21707 0.20550 0.47972 0.00000
O101 O 0.19897 0.09540 0.47629 0.00000
O102 O 0.13042 0.14600 0.50065 0.00000
O103 O 0.10511 0.10117 0.55800 0.00000
O104 O 0.18529 0.14322 0.58574 0.00000
Cu105 Cu 0.83726 0.89730 0.25086 0.00000
Cu106 Cu 0.95898 0.83096 0.29694 0.00000
Cu107 Cu 0.97189 0.86056 0.22053 0.00000
Cu108 Cu 0.88997 0.92259 0.17509 0.00000
C109 C 0.72035 0.88025 0.17188 0.00000
C110 C 0.88853 0.88094 0.33581 0.00000
O111 O 0.05492 0.86737 0.18950 0.00000
O112 O 0.99725 0.91082 0.15645 0.00000
O113 O 0.81200 0.94084 0.25221 0.00000
O114 O 0.83202 0.95706 0.19607 0.00000
O115 O 0.97391 0.81673 0.20814 0.00000
O116 O 0.97169 0.79656 0.26504 0.00000
C117 C 0.05548 0.88917 0.16635 0.00000
C118 C 0.81765 0.96146 0.22812 0.00000
O119 O 0.71741 0.88824 0.20526 0.00000
O120 O 0.79172 0.88331 0.16065 0.00000
C121 C 0.96707 0.79450 0.22972 0.00000
O122 O 0.94897 0.90460 0.22629 0.00000
O123 O 0.88042 0.85400 0.25065 0.00000
O124 O 0.85511 0.89883 0.30800 0.00000
O125 O 0.93529 0.85677 0.33574 0.00000
Cu126 Cu 0.33726 0.39730 0.25086 0.00000
Cu127 Cu 0.45898 0.33097 0.29694 0.00000
Cu128 Cu 0.47189 0.36056 0.22053 0.00000
Cu129 Cu 0.38997 0.42259 0.17509 0.00000
C130 C 0.22035 0.38026 0.17189 0.00000
C131 C 0.38853 0.38094 0.33581 0.00000
O132 O 0.55492 0.36737 0.18950 0.00000
O133 O 0.49725 0.41083 0.15645 0.00000
O134 O 0.31200 0.44084 0.25221 0.00000
O135 O 0.33201 0.45706 0.19607 0.00000
O136 O 0.47391 0.31674 0.20814 0.00000
O137 O 0.47169 0.29657 0.26505 0.00000
C138 C 0.55548 0.38918 0.16636 0.00000
C139 C 0.31765 0.46147 0.22812 0.00000
O140 O 0.21741 0.38825 0.20526 0.00000
O141 O 0.29172 0.38331 0.16066 0.00000
C142 C 0.46707 0.29450 0.22972 0.00000
O143 O 0.44897 0.40461 0.22629 0.00000
O144 O 0.38041 0.35400 0.25065 0.00000
O145 O 0.35510 0.39883 0.30800 0.00000
O146 O 0.43529 0.35678 0.33574 0.00000
Cu147 Cu 0.08726 0.60270 0.00010 0.00000
Cu148 Cu 0.20898 0.66904 0.04694 0.00000
Cu149 Cu 0.22189 0.63944 0.97053 0.00000
Cu150 Cu 0.13997 0.57741 0.92509 0.00000
C151 C 0.97035 0.61975 0.92189 0.00000
C152 C 0.13853 0.61906 0.08581 0.00000
O153 O 0.30492 0.63263 0.93950 0.00000
O154 O 0.24725 0.58918 0.90645 0.00000
O155 O 0.06200 0.55916 0.00221 0.00000
O156 O 0.08201 0.54294 0.94607 0.00000
O157 O 0.22391 0.68327 0.95814 0.00000
O158 O 0.22169 0.70344 0.01504 0.00000
C159 C 0.30548 0.61083 0.91635 0.00000
C160 C 0.06765 0.53854 0.97812 0.00000
O161 O 0.96741 0.61176 0.95526 0.00000
O162 O 0.04172 0.61669 0.91066 0.00000
C163 C 0.21706 0.70550 0.97972 0.00000
O164 O 0.19897 0.59540 0.97629 0.00000
O165 O 0.13041 0.64600 0.00010 0.00000
O166 O 0.10511 0.60117 0.05800 0.00000
O167 O 0.18529 0.64322 0.08574 0.00000
Cu168 Cu 0.83726 0.39731 0.75086 0.00000
Cu169 Cu 0.95898 0.33097 0.79694 0.00000
Cu170 Cu 0.97189 0.36056 0.72053 0.00000
Cu171 Cu 0.88997 0.42259 0.67509 0.00000
C172 C 0.72035 0.38026 0.67189 0.00000
C173 C 0.88853 0.38095 0.83582 0.00000
O174 O 0.05492 0.36738 0.68950 0.00000
O175 O 0.99725 0.41083 0.65645 0.00000
O176 O 0.81200 0.44085 0.75221 0.00000
O177 O 0.83201 0.45706 0.69607 0.00000
O178 O 0.97391 0.31674 0.70814 0.00000
O179 O 0.97169 0.29657 0.76505 0.00000
C180 C 0.05548 0.38918 0.66636 0.00000
C181 C 0.81765 0.46147 0.72812 0.00000
O182 O 0.71741 0.38825 0.70526 0.00000
O183 O 0.79172 0.38331 0.66066 0.00000
C184 C 0.96707 0.29450 0.72973 0.00000
O185 O 0.94897 0.40461 0.72630 0.00000
O186 O 0.88042 0.35401 0.75065 0.00000
O187 O 0.85511 0.39884 0.80800 0.00000
O188 O 0.93529 0.35678 0.83574 0.00000
Cu189 Cu 0.58726 0.10269 0.00010 0.00000
Cu190 Cu 0.70898 0.16903 0.04694 0.00000
Cu191 Cu 0.72189 0.13944 0.97053 0.00000
Cu192 Cu 0.63997 0.07741 0.92509 0.00000
C193 C 0.47035 0.11974 0.92189 0.00000
C194 C 0.63853 0.11905 0.08581 0.00000
O195 O 0.80492 0.13262 0.93950 0.00000
O196 O 0.74725 0.08917 0.90645 0.00000
O197 O 0.56200 0.05915 0.00221 0.00000
O198 O 0.58201 0.04294 0.94607 0.00000
O199 O 0.72391 0.18326 0.95814 0.00000
O200 O 0.72169 0.20343 0.01505 0.00000
C201 C 0.80548 0.11082 0.91636 0.00000
C202 C 0.56765 0.03853 0.97812 0.00000
O203 O 0.46741 0.11175 0.95526 0.00000
O204 O 0.54172 0.11669 0.91066 0.00000
C205 C 0.71707 0.20550 0.97972 0.00000
O206 O 0.69897 0.09539 0.97629 0.00000
O207 O 0.63042 0.14599 0.00010 0.00000
O208 O 0.60511 0.10117 0.05800 0.00000
O209 O 0.68529 0.14322 0.08574 0.00000
Cu210 Cu 0.66274 0.10270 0.24914 0.00000
Cu211 Cu 0.54102 0.16904 0.20306 0.00000
Cu212 Cu 0.52811 0.13944 0.27947 0.00000
Cu213 Cu 0.61003 0.07741 0.32491 0.00000
C214 C 0.77965 0.11975 0.32811 0.00000
C215 C 0.61147 0.11906 0.16419 0.00000
O216 O 0.44508 0.13263 0.31050 0.00000
O217 O 0.50275 0.08918 0.34355 0.00000
O218 O 0.68800 0.05916 0.24779 0.00000
O219 O 0.66799 0.04294 0.30393 0.00000
O220 O 0.52609 0.18327 0.29186 0.00000
O221 O 0.52831 0.20344 0.23495 0.00000
C222 C 0.44452 0.11083 0.33364 0.00000
C223 C 0.68235 0.03854 0.27188 0.00000
O224 O 0.78259 0.11176 0.29474 0.00000
O225 O 0.70828 0.11669 0.33934 0.00000
C226 C 0.53293 0.20550 0.27027 0.00000
O227 O 0.55103 0.09540 0.27371 0.00000
O228 O 0.61958 0.14600 0.24935 0.00000
O229 O 0.64489 0.10117 0.19200 0.00000
O230 O 0.56471 0.14322 0.16426 0.00000
Cu231 Cu 0.41274 0.89731 0.99990 0.00000
Cu232 Cu 0.29102 0.83097 0.95306 0.00000
Cu233 Cu 0.27811 0.86056 0.02947 0.00000
Cu234 Cu 0.36003 0.92259 0.07491 0.00000
C235 C 0.52965 0.88026 0.07811 0.00000
C236 C 0.36147 0.88095 0.91419 0.00000
O237 O 0.19508 0.86738 0.06050 0.00000
O238 O 0.25275 0.91083 0.09355 0.00000
O239 O 0.43800 0.94085 0.99779 0.00000
O240 O 0.41799 0.95706 0.05393 0.00000
O241 O 0.27609 0.81674 0.04186 0.00000
O242 O 0.27831 0.79657 0.98495 0.00000
C243 C 0.19452 0.88918 0.08365 0.00000
C244 C 0.43235 0.96147 0.02188 0.00000
O245 O 0.53259 0.88825 0.04474 0.00000
O246 O 0.45828 0.88331 0.08934 0.00000
C247 C 0.28293 0.79450 0.02028 0.00000
O248 O 0.30103 0.90461 0.02371 0.00000
O249 O 0.36958 0.85401 0.99990 0.00000
O250 O 0.39489 0.89884 0.94200 0.00000
O251 O 0.31471 0.85678 0.91426 0.00000
Cu252 Cu 0.33726 0.89730 0.75086 0.00000
Cu253 Cu 0.45898 0.83096 0.79694 0.00000
Cu254 Cu 0.47189 0.86056 0.72053 0.00000
Cu255 Cu 0.38997 0.92259 0.67509 0.00000
C256 C 0.22035 0.88025 0.67188 0.00000
C257 C 0.38853 0.88094 0.83581 0.00000
O258 O 0.55492 0.86737 0.68950 0.00000
O259 O 0.49725 0.91082 0.65645 0.00000
O260 O 0.31200 0.94084 0.75221 0.00000
O261 O 0.33201 0.95706 0.69607 0.00000
O262 O 0.47391 0.81673 0.70814 0.00000
O263 O 0.47169 0.79656 0.76505 0.00000
C264 C 0.55548 0.88917 0.66635 0.00000
C265 C 0.31765 0.96146 0.72812 0.00000
O266 O 0.21741 0.88825 0.70526 0.00000
O267 O 0.29172 0.88331 0.66065 0.00000
C268 C 0.46707 0.79450 0.72972 0.00000
O269 O 0.44897 0.90460 0.72629 0.00000
O270 O 0.38042 0.85400 0.75065 0.00000
O271 O 0.35511 0.89883 0.80800 0.00000
O272 O 0.43529 0.85678 0.83574 0.00000
Cu273 Cu 0.58726 0.60270 0.50086 0.00000
Cu274 Cu 0.70898 0.66904 0.54694 0.00000
Cu275 Cu 0.72189 0.63944 0.47053 0.00000
Cu276 Cu 0.63997 0.57742 0.42509 0.00000
C277 C 0.47035 0.61975 0.42189 0.00000
C278 C 0.63853 0.61906 0.58581 0.00000
O279 O 0.80492 0.63263 0.43950 0.00000
O280 O 0.74725 0.58918 0.40645 0.00000
O281 O 0.56200 0.55916 0.50221 0.00000
O282 O 0.58201 0.54294 0.44607 0.00000
O283 O 0.72391 0.68327 0.45814 0.00000
O284 O 0.72169 0.70344 0.51505 0.00000
C285 C 0.80548 0.61083 0.41635 0.00000
C286 C 0.56765 0.53854 0.47812 0.00000
O287 O 0.46741 0.61176 0.45526 0.00000
O288 O 0.54172 0.61670 0.41065 0.00000
C289 C 0.71707 0.70551 0.47972 0.00000
O290 O 0.69897 0.59540 0.47629 0.00000
O291 O 0.63042 0.64600 0.50065 0.00000
O292 O 0.60511 0.60117 0.55800 0.00000
O293 O 0.68529 0.64323 0.58574 0.00000
Cu294 Cu 0.66274 0.60269 0.74914 0.00000
Cu295 Cu 0.54102 0.66903 0.70306 0.00000
Cu296 Cu 0.52811 0.63944 0.77947 0.00000
Cu297 Cu 0.61003 0.57741 0.82491 0.00000
C298 C 0.77965 0.61974 0.82811 0.00000
C299 C 0.61147 0.61905 0.66419 0.00000
O300 O 0.44508 0.63262 0.81050 0.00000
O301 O 0.50275 0.58917 0.84355 0.00000
O302 O 0.68800 0.55915 0.74779 0.00000
O303 O 0.66799 0.54294 0.80393 0.00000
O304 O 0.52609 0.68326 0.79186 0.00000
O305 O 0.52831 0.70343 0.73495 0.00000
C306 C 0.44452 0.61082 0.83364 0.00000
C307 C 0.68235 0.53853 0.77188 0.00000
O308 O 0.78259 0.61175 0.79474 0.00000
O309 O 0.70828 0.61669 0.83934 0.00000
C310 C 0.53293 0.70550 0.77028 0.00000
O311 O 0.55103 0.59539 0.77371 0.00000
O312 O 0.61958 0.64599 0.74935 0.00000
O313 O 0.64489 0.60116 0.69200 0.00000
O314 O 0.56471 0.64322 0.66426 0.00000
Cu315 Cu 0.41274 0.39730 0.49914 0.00000
Cu316 Cu 0.29102 0.33096 0.45306 0.00000
Cu317 Cu 0.27811 0.36056 0.52947 0.00000
Cu318 Cu 0.36003 0.42258 0.57491 0.00000
C319 C 0.52965 0.38025 0.57811 0.00000
C320 C 0.36147 0.38094 0.41419 0.00000
O321 O 0.19508 0.36737 0.56050 0.00000
O322 O 0.25275 0.41082 0.59355 0.00000
O323 O 0.43800 0.44084 0.49779 0.00000
O324 O 0.41798 0.45706 0.55393 0.00000
O325 O 0.27609 0.31673 0.54186 0.00000
O326 O 0.27831 0.29656 0.48495 0.00000
C327 C 0.19452 0.38917 0.58364 0.00000
C328 C 0.43235 0.46146 0.52188 0.00000
O329 O 0.53259 0.38824 0.54474 0.00000
O330 O 0.45828 0.38330 0.58934 0.00000
C331 C 0.28293 0.29449 0.52028 0.00000
O332 O 0.30103 0.40460 0.52371 0.00000
O333 O 0.36958 0.35400 0.49935 0.00000
O334 O 0.39489 0.39883 0.44200 0.00000
O335 O 0.31471 0.35677 0.41426 0.00000
H336 H 0.35898 0.49093 0.30996 0.00000
H337 H 0.37892 0.46015 0.29527 0.00000
N338 N 0.34823 0.47752 0.29130 0.00000
H339 H 0.22810 0.46824 0.24837 0.00000
H340 H 0.27312 0.53168 0.25053 0.00000
H341 H 0.18011 0.51637 0.22200 0.00000
C342 C 0.27777 0.48419 0.25272 0.00000
C343 C 0.22700 0.51515 0.24809 0.00000
H344 H 0.13499 0.77810 0.27762 0.00000
H345 H 0.11694 0.79418 0.23922 0.00000
N346 N 0.10033 0.78072 0.25348 0.00000
H347 H 0.02275 0.75017 0.21522 0.00000
H348 H 0.97437 0.75044 0.28419 0.00000
H349 H 0.93178 0.72781 0.24863 0.00000
C350 C 0.01293 0.76234 0.23655 0.00000
C351 C 0.98865 0.73925 0.26344 0.00000
H352 H 0.84237 0.26245 0.96293 0.00000
H353 H 0.84262 0.22896 0.95230 0.00000
N354 N 0.82476 0.24360 0.96468 0.00000
H355 H 0.80179 0.22219 0.00930 0.00000
H356 H 0.69526 0.27726 0.99001 0.00000
H357 H 0.69938 0.25543 0.02535 0.00000
C358 C 0.76432 0.23633 0.98867 0.00000
C359 C 0.73601 0.26326 0.00943 0.00000
H360 H 0.85459 0.24940 0.75825 0.00000
H361 H 0.84616 0.28333 0.74928 0.00000
N362 N 0.87799 0.26621 0.75218 0.00000
H363 H 0.01284 0.27975 0.76672 0.00000
H364 H 0.98719 0.22065 0.73202 0.00000
H365 H 0.08560 0.23778 0.74939 0.00000
C366 C 0.97199 0.26578 0.74673 0.00000
C367 C 0.02329 0.23488 0.75232 0.00000
H368 H 0.89467 0.72620 0.51927 0.00000
H369 H 0.84436 0.69579 0.50870 0.00000
N370 N 0.84240 0.71575 0.51032 0.00000
H371 H 0.71517 0.72426 0.51491 0.00000
H372 H 0.78281 0.77552 0.48375 0.00000
H373 H 0.68743 0.77470 0.49376 0.00000
C374 C 0.74990 0.73187 0.49779 0.00000
C375 C 0.75245 0.76688 0.50153 0.00000
H376 H 0.87378 0.01165 0.44606 0.00000
H377 H 0.91981 0.04215 0.44400 0.00000
N378 N 0.92054 0.02443 0.45525 0.00000
H379 H 0.00250 0.03149 0.51019 0.00000
H380 H 0.00010 0.96857 0.48963 0.00000
H381 H 0.05294 0.98228 0.53149 0.00000
C382 C 0.00159 0.01609 0.49004 0.00000
C383 C 0.99759 0.98462 0.50806 0.00000
H384 H 0.12097 0.99738 0.69467 0.00000
H385 H 0.05884 0.00359 0.71911 0.00000
N386 N 0.11492 0.00100 0.71721 0.00000
H387 H 0.19340 0.98602 0.76976 0.00000
H388 H 0.30689 0.01494 0.73098 0.00000
H389 H 0.34561 0.99861 0.77206 0.00000
C390 C 0.19991 0.00280 0.75244 0.00000
C391 C 0.29562 0.99803 0.74669 0.00000
H392 H 0.35576 0.25881 0.46774 0.00000
H393 H 0.35173 0.22503 0.45805 0.00000
N394 N 0.33351 0.24051 0.46903 0.00000
H395 H 0.29533 0.22131 0.51148 0.00000
H396 H 0.20169 0.27819 0.48775 0.00000
H397 H 0.19335 0.25757 0.52233 0.00000
C398 C 0.26455 0.23561 0.48987 0.00000
C399 C 0.23615 0.26390 0.50831 0.00000
H400 H 0.84239 0.03942 0.24102 0.00000
H401 H 0.92110 0.01655 0.24569 0.00000
N402 N 0.86352 0.02065 0.24494 0.00000
H403 H 0.83312 0.98735 0.27677 0.00000
H404 H 0.66650 0.01178 0.22233 0.00000
H405 H 0.66923 0.98648 0.25398 0.00000
C406 C 0.80167 0.99561 0.25034 0.00000
C407 C 0.70171 0.00466 0.24862 0.00000
H408 H 0.48172 0.21601 0.20001 0.00000
H409 H 0.56018 0.19688 0.22684 0.00000
N410 N 0.52369 0.21302 0.22275 0.00000
H411 H 0.59823 0.24373 0.26160 0.00000
H412 H 0.40148 0.25583 0.23959 0.00000
H413 H 0.48209 0.27653 0.26787 0.00000
C414 C 0.53324 0.23533 0.25460 0.00000
C415 C 0.46667 0.26300 0.24512 0.00000
H416 H 0.10192 0.77087 0.97396 0.00000
H417 H 0.09131 0.75350 0.93697 0.00000
N418 N 0.12477 0.75830 0.96073 0.00000
H419 H 0.25863 0.75227 0.96254 0.00000
H420 H 0.24149 0.74660 0.03744 0.00000
H421 H 0.33783 0.74519 0.02822 0.00000
C422 C 0.22058 0.74498 0.97852 0.00000
C423 C 0.27469 0.75452 0.02027 0.00000
H424 H 0.92529 0.54011 0.01865 0.00000
H425 H 0.84191 0.51923 0.01414 0.00000
N426 N 0.89852 0.52219 0.01297 0.00000
H427 H 0.91013 0.49102 0.97446 0.00000
H428 H 0.09018 0.50804 0.02632 0.00000
H429 H 0.07247 0.48541 0.99054 0.00000
C430 C 0.94907 0.49662 0.00130 0.00000
C431 C 0.04802 0.50363 0.99990 0.00000
H432 H 0.87049 0.53494 0.77196 0.00000
H433 H 0.79725 0.55971 0.76762 0.00000
N434 N 0.81152 0.54049 0.76573 0.00000
H435 H 0.69758 0.52338 0.72510 0.00000
H436 H 0.80020 0.47659 0.77564 0.00000
H437 H 0.70961 0.47120 0.73863 0.00000
C438 C 0.73518 0.51727 0.75191 0.00000
C439 C 0.76599 0.48406 0.74941 0.00000
H440 H 0.61682 0.00511 0.05891 0.00000
H441 H 0.68619 0.01093 0.03760 0.00000
N442 N 0.62873 0.00707 0.03722 0.00000
H443 H 0.56854 0.98608 0.98626 0.00000
H444 H 0.43109 0.01481 0.01286 0.00000
H445 H 0.40875 0.99442 0.97486 0.00000
C446 C 0.55139 0.00388 0.99990 0.00000
C447 C 0.45269 0.99713 0.00134 0.00000
H448 H 0.46974 0.77420 0.80054 0.00000
H449 H 0.45759 0.74303 0.81641 0.00000
N450 N 0.46972 0.75425 0.79879 0.00000
H451 H 0.43268 0.72757 0.75151 0.00000
H452 H 0.56993 0.77168 0.74887 0.00000
H453 H 0.51990 0.74805 0.71530 0.00000
C454 C 0.49033 0.73928 0.76588 0.00000
C455 C 0.51091 0.76052 0.73623 0.00000
H456 H 0.42467 0.54010 0.51833 0.00000
H457 H 0.34143 0.51916 0.51381 0.00000
N458 N 0.39808 0.52215 0.51270 0.00000
H459 H 0.41033 0.49090 0.47441 0.00000
H460 H 0.58999 0.50816 0.52638 0.00000
H461 H 0.57276 0.48544 0.49072 0.00000
C462 C 0.44904 0.49658 0.50124 0.00000
C463 C 0.54804 0.50366 0.50000 0.00000
H464 H 0.27665 0.65233 0.40192 0.00000
H465 H 0.32891 0.63710 0.44011 0.00000
N466 N 0.32122 0.64014 0.41563 0.00000
H467 H 0.37379 0.60218 0.39945 0.00000
H468 H 0.37961 0.65275 0.35121 0.00000
H469 H 0.40967 0.61862 0.34544 0.00000
C470 C 0.38420 0.62452 0.39742 0.00000
C471 C 0.36618 0.63104 0.35440 0.00000
H472 H 0.89497 0.66373 0.38289 0.00000
H473 H 0.82478 0.66354 0.40459 0.00000
N474 N 0.85677 0.65372 0.39215 0.00000
H475 H 0.77880 0.61635 0.37134 0.00000
H476 H 0.97180 0.60629 0.37987 0.00000
H477 H 0.88874 0.58248 0.36187 0.00000
C478 C 0.84599 0.61995 0.38683 0.00000
C479 C 0.90451 0.60443 0.36471 0.00000
H480 H 0.75765 0.41575 0.15843 0.00000
H481 H 0.70475 0.42814 0.18405 0.00000
N482 N 0.70645 0.41659 0.16474 0.00000
H483 H 0.57116 0.41353 0.13094 0.00000
H484 H 0.67762 0.36256 0.11986 0.00000
H485 H 0.56967 0.36880 0.09621 0.00000
C486 C 0.62201 0.39841 0.14272 0.00000
C487 C 0.63065 0.37875 0.10931 0.00000
H488 H 0.76042 0.07481 0.85240 0.00000
H489 H 0.77733 0.06509 0.89384 0.00000
N490 N 0.79039 0.07706 0.87711 0.00000
H491 H 0.92371 0.09039 0.90417 0.00000
H492 H 0.82578 0.13355 0.84678 0.00000
H493 H 0.93424 0.13557 0.87217 0.00000
C494 C 0.86365 0.10127 0.89083 0.00000
C495 C 0.88238 0.12132 0.85970 0.00000
H496 H 0.76557 0.91083 0.66022 0.00000
H497 H 0.71677 0.92425 0.68678 0.00000
N498 N 0.71486 0.91312 0.66665 0.00000
H499 H 0.57938 0.91492 0.63280 0.00000
H500 H 0.66919 0.86119 0.61795 0.00000
H501 H 0.56383 0.87120 0.59488 0.00000
C502 C 0.62514 0.89808 0.64343 0.00000
C503 C 0.62762 0.87895 0.60862 0.00000
H504 H 0.77727 0.15283 0.40179 0.00000
H505 H 0.82915 0.13766 0.44006 0.00000
N506 N 0.82153 0.14057 0.41556 0.00000
H507 H 0.87317 0.10233 0.39958 0.00000
H508 H 0.88024 0.15258 0.35107 0.00000
H509 H 0.90946 0.11831 0.34548 0.00000
C510 C 0.88413 0.12462 0.39743 0.00000
C511 C 0.86627 0.13094 0.35438 0.00000
H512 H 0.31351 0.08095 0.88453 0.00000
H513 H 0.21994 0.09063 0.85577 0.00000
N514 N 0.27918 0.09452 0.86849 0.00000
H515 H 0.28567 0.14041 0.87121 0.00000
H516 H 0.46401 0.11457 0.87743 0.00000
H517 H 0.44407 0.15006 0.88090 0.00000
C518 C 0.32131 0.12425 0.86273 0.00000
C519 C 0.42555 0.12930 0.88609 0.00000
H520 H 0.22170 0.12061 0.33689 0.00000
H521 H 0.25886 0.13594 0.30770 0.00000
N522 N 0.26914 0.12639 0.32972 0.00000
H523 H 0.39825 0.14031 0.36213 0.00000
H524 H 0.35367 0.08235 0.38723 0.00000
H525 H 0.44730 0.10131 0.40764 0.00000
C526 C 0.36753 0.12000 0.35491 0.00000
C527 C 0.37963 0.10315 0.39302 0.00000
H528 H 0.10752 0.82103 0.63347 0.00000
H529 H 0.20829 0.82028 0.66059 0.00000
N530 N 0.16040 0.83048 0.64528 0.00000
H531 H 0.21968 0.86623 0.62757 0.00000
H532 H 0.03132 0.87964 0.62363 0.00000
H533 H 0.09771 0.90180 0.60957 0.00000
C534 C 0.16920 0.86396 0.63943 0.00000
C535 C 0.08210 0.88019 0.61217 0.00000
H536 H 0.73454 0.84739 0.10449 0.00000
H537 H 0.81143 0.86258 0.13706 0.00000
N538 N 0.75158 0.85962 0.12448 0.00000
H539 H 0.68875 0.89774 0.13463 0.00000
H540 H 0.56152 0.84735 0.11674 0.00000
H541 H 0.53473 0.88156 0.12394 0.00000
C542 C 0.67891 0.87542 0.13721 0.00000
C543 C 0.57558 0.86902 0.11366 0.00000
H544 H 0.07618 0.42165 0.13164 0.00000
H545 H 0.04717 0.42519 0.08815 0.00000
N546 N 0.07098 0.41405 0.10895 0.00000
H547 H 0.15403 0.38384 0.09421 0.00000
H548 H 0.09354 0.36075 0.15492 0.00000
H549 H 0.16481 0.34395 0.13758 0.00000
C550 C 0.10254 0.38215 0.10561 0.00000
C551 C 0.14345 0.36412 0.14341 0.00000
H552 H 0.28108 0.87745 0.15700 0.00000
H553 H 0.28578 0.86233 0.12045 0.00000
N554 N 0.25378 0.87214 0.13289 0.00000
H555 H 0.11954 0.85987 0.10562 0.00000
H556 H 0.12984 0.91749 0.14317 0.00000
H557 H 0.03509 0.89970 0.12088 0.00000
C558 C 0.15282 0.87978 0.11290 0.00000
C559 C 0.10167 0.89702 0.13669 0.00000
H560 H 0.51695 0.63576 0.90379 0.00000
H561 H 0.55421 0.62043 0.87463 0.00000
N562 N 0.50824 0.62367 0.88390 0.00000
H563 H 0.42723 0.58617 0.86870 0.00000
H564 H 0.32132 0.63725 0.87990 0.00000
H565 H 0.28183 0.60334 0.87014 0.00000
C566 C 0.41526 0.60858 0.86572 0.00000
C567 C 0.33835 0.61544 0.88367 0.00000
H568 H 0.96379 0.65897 0.85025 0.00000
H569 H 0.91651 0.64472 0.81093 0.00000
N570 N 0.92348 0.64599 0.83557 0.00000
H571 H 0.88432 0.60460 0.84871 0.00000
H572 H 0.86224 0.65021 0.90065 0.00000
H573 H 0.84397 0.61456 0.90374 0.00000
C574 C 0.86651 0.62603 0.85242 0.00000
C575 C 0.88281 0.62965 0.89583 0.00000
H576 H 0.70802 0.41247 0.61054 0.00000
H577 H 0.74170 0.42107 0.65297 0.00000
N578 N 0.70899 0.40909 0.63419 0.00000
H579 H 0.60778 0.39211 0.65309 0.00000
H580 H 0.64412 0.35243 0.59791 0.00000
H581 H 0.56442 0.34735 0.61717 0.00000
C582 C 0.65509 0.38295 0.64265 0.00000
C583 C 0.59958 0.36303 0.60819 0.00000
H584 H 0.09096 0.43991 0.62065 0.00000
H585 H 0.02381 0.43427 0.64304 0.00000
N586 N 0.06452 0.42735 0.63258 0.00000
H587 H 0.02905 0.38318 0.62140 0.00000
H588 H 0.22207 0.39318 0.62993 0.00000
H589 H 0.16796 0.36145 0.61849 0.00000
C590 C 0.08865 0.39416 0.63516 0.00000
C591 C 0.16062 0.38384 0.61610 0.00000
H592 H 0.03086 0.65811 0.11123 0.00000
H593 H 0.06961 0.66539 0.07889 0.00000
N594 N 0.06769 0.65350 0.09787 0.00000
H595 H 0.19365 0.63259 0.11498 0.00000
H596 H 0.05591 0.59713 0.13393 0.00000
H597 H 0.16466 0.58868 0.14526 0.00000
C598 C 0.12719 0.62543 0.10731 0.00000
C599 C 0.11977 0.60581 0.14096 0.00000
H600 H 0.03614 0.38411 0.88968 0.00000
H601 H 0.02239 0.36816 0.85148 0.00000
N602 N 0.99872 0.37645 0.86804 0.00000
H603 H 0.87331 0.35578 0.85713 0.00000
H604 H 0.87493 0.41429 0.89163 0.00000
H605 H 0.78965 0.39064 0.88133 0.00000
C606 C 0.89468 0.37747 0.85926 0.00000
C607 C 0.85878 0.39237 0.88974 0.00000
H608 H 0.18578 0.06652 0.62850 0.00000
H609 H 0.13189 0.06271 0.58583 0.00000
N610 N 0.14785 0.07393 0.60680 0.00000
H611 H 0.04068 0.10356 0.59792 0.00000
H612 H 0.20993 0.12754 0.65110 0.00000
H613 H 0.10966 0.14381 0.63913 0.00000
C614 C 0.11032 0.10563 0.60543 0.00000
C615 C 0.14166 0.12380 0.64340 0.00000
H616 H 0.71361 0.88990 0.35372 0.00000
H617 H 0.72022 0.90557 0.31780 0.00000
N618 N 0.74753 0.89658 0.34004 0.00000
H619 H 0.87878 0.91372 0.35774 0.00000
H620 H 0.87252 0.85532 0.39136 0.00000
H621 H 0.96338 0.87654 0.40070 0.00000
C622 C 0.85180 0.89270 0.35448 0.00000
C623 C 0.89426 0.87671 0.39369 0.00000
H624 H 0.23466 0.41119 0.35608 0.00000
H625 H 0.26016 0.42380 0.32226 0.00000
N626 N 0.27380 0.41233 0.34298 0.00000
H627 H 0.41510 0.41023 0.36180 0.00000
H628 H 0.33539 0.35866 0.38721 0.00000
H629 H 0.44510 0.36566 0.39865 0.00000
C630 C 0.36374 0.39475 0.35581 0.00000
C631 C 0.38245 0.37517 0.39237 0.00000
H632 H 0.75284 0.14721 0.13596 0.00000
H633 H 0.77112 0.13303 0.10134 0.00000
N634 N 0.73742 0.13419 0.11678 0.00000
H635 H 0.67818 0.09262 0.11325 0.00000
H636 H 0.56947 0.13788 0.13544 0.00000
H637 H 0.54731 0.10215 0.13218 0.00000
C638 C 0.65379 0.11397 0.11028 0.00000
C639 C 0.59838 0.11741 0.13858 0.00000
H640 H 0.23947 0.91372 0.85660 0.00000
H641 H 0.26711 0.92573 0.82302 0.00000
N642 N 0.27875 0.91408 0.84351 0.00000
H643 H 0.41945 0.90940 0.86227 0.00000
H644 H 0.33092 0.85948 0.88672 0.00000
H645 H 0.44167 0.86445 0.89828 0.00000
C646 C 0.36548 0.89489 0.85600 0.00000
C647 C 0.38077 0.87511 0.89219 0.00000
H648 H 0.72991 0.57532 0.63340 0.00000
H649 H 0.68217 0.56675 0.59142 0.00000
N650 N 0.68659 0.57872 0.61111 0.00000
H651 H 0.55617 0.59577 0.59964 0.00000
H652 H 0.69375 0.63537 0.64930 0.00000
H653 H 0.58282 0.64051 0.63615 0.00000
C654 C 0.62023 0.60490 0.60653 0.00000
C655 C 0.63260 0.62481 0.64240 0.00000
loop_
_geom_bond_atom_site_label_1
_geom_bond_atom_site_label_2
_geom_bond_distance
_geom_bond_site_symmetry_2
_ccdc_geom_bond_type
Cu0 O8 1.912 . S
Cu0 O14 2.020 . S
Cu0 O17 2.138 . S
Cu0 O18 1.968 . S
Cu0 O19 1.989 . S
Cu1 O11 1.919 . S
Cu1 O18 1.960 . S
Cu1 O20 1.905 . S
Cu2 O6 1.935 1_455 S
Cu2 O10 1.938 . S
Cu2 O17 1.946 . S
Cu2 O18 2.012 . S
Cu3 O7 1.980 . S
Cu3 O9 1.981 . S
Cu3 O15 2.176 . S
Cu3 O17 1.925 . S
C4 O14 1.265 . A
C4 O15 1.255 . A
C5 O19 1.231 . A
C5 O20 1.248 . A
O6 C12 1.256 . A
O7 C12 1.238 1_455 A
O8 C13 1.262 . A
O9 C13 1.255 . A
O10 C16 1.257 . A
O11 C16 1.255 . A
Cu21 O29 1.915 . S
Cu21 O35 2.006 1_656 S
Cu21 O38 2.119 1_556 S
Cu21 O39 1.968 . S
Cu21 O40 2.016 . S
Cu22 O32 1.919 . S
Cu22 O39 1.973 . S
Cu22 O41 1.905 . S
Cu23 O27 1.935 . S
Cu23 O31 1.938 . S
Cu23 O38 1.946 . S
Cu23 O39 1.997 1_554 S
Cu24 O28 1.980 . S
Cu24 O30 1.981 . S
Cu24 O36 2.176 . S
Cu24 O38 1.925 . S
C25 O35 1.265 . A
C25 O36 1.255 1_455 A
C26 O40 1.231 . A
C26 O41 1.248 . A
O27 C33 1.256 . A
O28 C33 1.238 . A
O29 C34 1.262 1_556 A
O30 C34 1.255 . A
O31 C37 1.257 . A
O32 C37 1.255 1_556 A
Cu42 O50 1.912 . S
Cu42 O56 2.020 . S
Cu42 O59 2.138 . S
Cu42 O60 1.968 . S
Cu42 O61 1.989 . S
Cu43 O53 1.919 . S
Cu43 O60 1.960 . S
Cu43 O62 1.905 . S
Cu44 O48 1.935 1_455 S
Cu44 O52 1.938 . S
Cu44 O59 1.946 . S
Cu44 O60 2.012 . S
Cu45 O49 1.980 . S
Cu45 O51 1.981 . S
Cu45 O57 2.176 . S
Cu45 O59 1.925 . S
C46 O56 1.265 . A
C46 O57 1.255 . A
C47 O61 1.231 . A
C47 O62 1.248 . A
O48 C54 1.256 . A
O49 C54 1.238 1_455 A
O50 C55 1.262 . A
O51 C55 1.255 . A
O52 C58 1.257 . A
O53 C58 1.255 . A
Cu63 O71 1.912 . S
Cu63 O77 2.020 1_655 S
Cu63 O80 2.138 . S
Cu63 O81 1.968 . S
Cu63 O82 1.989 . S
Cu64 O74 1.919 . S
Cu64 O81 1.960 . S
Cu64 O83 1.905 . S
Cu65 O69 1.935 . S
Cu65 O73 1.938 . S
Cu65 O80 1.946 . S
Cu65 O81 2.012 . S
Cu66 O70 1.980 . S
Cu66 O72 1.981 . S
Cu66 O78 2.176 . S
Cu66 O80 1.925 . S
C67 O77 1.265 . A
C67 O78 1.255 1_455 A
C68 O82 1.231 . A
C68 O83 1.248 . A
O69 C75 1.256 . A
O70 C75 1.238 . A
O71 C76 1.262 . A
O72 C76 1.255 . A
O73 C79 1.257 . A
O74 C79 1.255 . A
Cu84 O92 1.912 . S
Cu84 O98 2.020 1_455 S
Cu84 O101 2.138 . S
Cu84 O102 1.968 . S
Cu84 O103 1.989 . S
Cu85 O95 1.919 . S
Cu85 O102 1.960 . S
Cu85 O104 1.905 . S
Cu86 O90 1.935 . S
Cu86 O94 1.938 . S
Cu86 O101 1.946 . S
Cu86 O102 2.012 . S
Cu87 O91 1.980 . S
Cu87 O93 1.981 . S
Cu87 O99 2.176 . S
Cu87 O101 1.925 . S
C88 O98 1.265 . A
C88 O99 1.255 1_655 A
C89 O103 1.231 . A
C89 O104 1.248 . A
O90 C96 1.256 . A
O91 C96 1.238 . A
O92 C97 1.262 . A
O93 C97 1.255 . A
O94 C100 1.257 . A
O95 C100 1.255 . A
Cu105 O113 1.912 . S
Cu105 O119 2.020 . S
Cu105 O122 2.138 . S
Cu105 O123 1.968 . S
Cu105 O124 1.989 . S
Cu106 O116 1.919 . S
Cu106 O123 1.960 . S
Cu106 O125 1.905 . S
Cu107 O111 1.935 1_655 S
Cu107 O115 1.938 . S
Cu107 O122 1.946 . S
Cu107 O123 2.012 . S
Cu108 O112 1.980 . S
Cu108 O114 1.981 . S
Cu108 O120 2.176 . S
Cu108 O122 1.925 . S
C109 O119 1.265 . A
C109 O120 1.255 . A
C110 O124 1.231 . A
C110 O125 1.248 . A
O111 C117 1.256 . A
O112 C117 1.238 1_655 A
O113 C118 1.262 . A
O114 C118 1.255 . A
O115 C121 1.257 . A
O116 C121 1.255 . A
Cu126 O134 1.912 . S
Cu126 O140 2.020 . S
Cu126 O143 2.138 . S
Cu126 O144 1.968 . S
Cu126 O145 1.989 . S
Cu127 O137 1.919 . S
Cu127 O144 1.960 . S
Cu127 O146 1.905 . S
Cu128 O132 1.935 . S
Cu128 O136 1.938 . S
Cu128 O143 1.946 . S
Cu128 O144 2.012 . S
Cu129 O133 1.980 . S
Cu129 O135 1.981 . S
Cu129 O141 2.176 . S
Cu129 O143 1.925 . S
C130 O140 1.265 . A
C130 O141 1.255 . A
C131 O145 1.231 . A
C131 O146 1.248 . A
O132 C138 1.256 . A
O133 C138 1.238 . A
O134 C139 1.262 . A
O135 C139 1.255 . A
O136 C142 1.257 . A
O137 C142 1.255 . A
Cu147 O155 1.915 . S
Cu147 O161 2.006 1_454 S
Cu147 O164 2.119 1_554 S
Cu147 O165 1.968 . S
Cu147 O166 2.016 . S
Cu148 O158 1.919 . S
Cu148 O165 1.973 . S
Cu148 O167 1.905 . S
Cu149 O153 1.935 . S
Cu149 O157 1.938 . S
Cu149 O164 1.946 . S
Cu149 O165 1.997 1_556 S
Cu150 O154 1.980 . S
Cu150 O156 1.981 . S
Cu150 O162 2.176 . S
Cu150 O164 1.925 . S
C151 O161 1.265 . A
C151 O162 1.255 1_655 A
C152 O166 1.231 . A
C152 O167 1.248 . A
O153 C159 1.256 . A
O154 C159 1.238 . A
O155 C160 1.262 1_554 A
O156 C160 1.255 . A
O157 C163 1.257 . A
O158 C163 1.255 1_554 A
Cu168 O176 1.912 . S
Cu168 O182 2.020 . S
Cu168 O185 2.138 . S
Cu168 O186 1.968 . S
Cu168 O187 1.989 . S
Cu169 O179 1.919 . S
Cu169 O186 1.960 . S
Cu169 O188 1.905 . S
Cu170 O174 1.935 1_655 S
Cu170 O178 1.938 . S
Cu170 O185 1.946 . S
Cu170 O186 2.012 . S
Cu171 O175 1.980 . S
Cu171 O177 1.981 . S
Cu171 O183 2.176 . S
Cu171 O185 1.925 . S
C172 O182 1.265 . A
C172 O183 1.255 . A
C173 O187 1.231 . A
C173 O188 1.248 . A
O174 C180 1.256 . A
O175 C180 1.238 1_655 A
O176 C181 1.262 . A
O177 C181 1.255 . A
O178 C184 1.257 . A
O179 C184 1.255 . A
Cu189 O197 1.915 . S
Cu189 O203 2.006 1_554 S
Cu189 O206 2.119 1_554 S
Cu189 O207 1.968 . S
Cu189 O208 2.016 . S
Cu190 O200 1.919 . S
Cu190 O207 1.973 . S
Cu190 O209 1.905 . S
Cu191 O195 1.935 . S
Cu191 O199 1.938 . S
Cu191 O206 1.946 . S
Cu191 O207 1.997 1_556 S
Cu192 O196 1.980 . S
Cu192 O198 1.981 . S
Cu192 O204 2.176 . S
Cu192 O206 1.925 . S
C193 O203 1.265 . A
C193 O204 1.255 . A
C194 O208 1.231 . A
C194 O209 1.248 . A
O195 C201 1.256 . A
O196 C201 1.238 . A
O197 C202 1.262 1_554 A
O198 C202 1.255 . A
O199 C205 1.257 . A
O200 C205 1.255 1_554 A
Cu210 O218 1.912 . S
Cu210 O224 2.020 . S
Cu210 O227 2.138 . S
Cu210 O228 1.968 . S
Cu210 O229 1.989 . S
Cu211 O221 1.919 . S
Cu211 O228 1.960 . S
Cu211 O230 1.905 . S
Cu212 O216 1.935 . S
Cu212 O220 1.938 . S
Cu212 O227 1.946 . S
Cu212 O228 2.012 . S
Cu213 O217 1.980 . S
Cu213 O219 1.981 . S
Cu213 O225 2.176 . S
Cu213 O227 1.925 . S
C214 O224 1.265 . A
C214 O225 1.255 . A
C215 O229 1.231 . A
C215 O230 1.248 . A
O216 C222 1.256 . A
O217 C222 1.238 . A
O218 C223 1.262 . A
O219 C223 1.255 . A
O220 C226 1.257 . A
O221 C226 1.255 . A
Cu231 O239 1.915 . S
Cu231 O245 2.006 1_556 S
Cu231 O248 2.119 1_556 S
Cu231 O249 1.968 . S
Cu231 O250 2.016 . S
Cu232 O242 1.919 . S
Cu232 O249 1.973 . S
Cu232 O251 1.905 . S
Cu233 O237 1.935 . S
Cu233 O241 1.938 . S
Cu233 O248 1.946 . S
Cu233 O249 1.997 1_554 S
Cu234 O238 1.980 . S
Cu234 O240 1.981 . S
Cu234 O246 2.176 . S
Cu234 O248 1.925 . S
C235 O245 1.265 . A
C235 O246 1.255 . A
C236 O250 1.231 . A
C236 O251 1.248 . A
O237 C243 1.256 . A
O238 C243 1.238 . A
O239 C244 1.262 1_556 A
O240 C244 1.255 . A
O241 C247 1.257 . A
O242 C247 1.255 1_556 A
Cu252 O260 1.912 . S
Cu252 O266 2.020 . S
Cu252 O269 2.138 . S
Cu252 O270 1.968 . S
Cu252 O271 1.989 . S
Cu253 O263 1.919 . S
Cu253 O270 1.960 . S
Cu253 O272 1.905 . S
Cu254 O258 1.935 . S
Cu254 O262 1.938 . S
Cu254 O269 1.946 . S
Cu254 O270 2.012 . S
Cu255 O259 1.980 . S
Cu255 O261 1.981 . S
Cu255 O267 2.176 . S
Cu255 O269 1.925 . S
C256 O266 1.265 . A
C256 O267 1.255 . A
C257 O271 1.231 . A
C257 O272 1.248 . A
O258 C264 1.256 . A
O259 C264 1.238 . A
O260 C265 1.262 . A
O261 C265 1.255 . A
O262 C268 1.257 . A
O263 C268 1.255 . A
Cu273 O281 1.912 . S
Cu273 O287 2.020 . S
Cu273 O290 2.138 . S
Cu273 O291 1.968 . S
Cu273 O292 1.989 . S
Cu274 O284 1.919 . S
Cu274 O291 1.960 . S
Cu274 O293 1.905 . S
Cu275 O279 1.935 . S
Cu275 O283 1.938 . S
Cu275 O290 1.946 . S
Cu275 O291 2.012 . S
Cu276 O280 1.980 . S
Cu276 O282 1.981 . S
Cu276 O288 2.176 . S
Cu276 O290 1.925 . S
C277 O287 1.265 . A
C277 O288 1.255 . A
C278 O292 1.231 . A
C278 O293 1.248 . A
O279 C285 1.256 . A
O280 C285 1.238 . A
O281 C286 1.262 . A
O282 C286 1.255 . A
O283 C289 1.257 . A
O284 C289 1.255 . A
Cu294 O302 1.912 . S
Cu294 O308 2.020 . S
Cu294 O311 2.138 . S
Cu294 O312 1.968 . S
Cu294 O313 1.989 . S
Cu295 O305 1.919 . S
Cu295 O312 1.960 . S
Cu295 O314 1.905 . S
Cu296 O300 1.935 . S
Cu296 O304 1.938 . S
Cu296 O311 1.946 . S
Cu296 O312 2.012 . S
Cu297 O301 1.980 . S
Cu297 O303 1.981 . S
Cu297 O309 2.176 . S
Cu297 O311 1.925 . S
C298 O308 1.265 . A
C298 O309 1.255 . A
C299 O313 1.231 . A
C299 O314 1.248 . A
O300 C306 1.256 . A
O301 C306 1.238 . A
O302 C307 1.262 . A
O303 C307 1.255 . A
O304 C310 1.257 . A
O305 C310 1.255 . A
Cu315 O323 1.912 . S
Cu315 O329 2.020 . S
Cu315 O332 2.138 . S
Cu315 O333 1.968 . S
Cu315 O334 1.989 . S
Cu316 O326 1.919 . S
Cu316 O333 1.960 . S
Cu316 O335 1.905 . S
Cu317 O321 1.935 . S
Cu317 O325 1.938 . S
Cu317 O332 1.946 . S
Cu317 O333 2.012 . S
Cu318 O322 1.980 . S
Cu318 O324 1.981 . S
Cu318 O330 2.176 . S
Cu318 O332 1.925 . S
C319 O329 1.265 . A
C319 O330 1.255 . A
C320 O334 1.231 . A
C320 O335 1.248 . A
O321 C327 1.256 . A
O322 C327 1.238 . A
O323 C328 1.262 . A
O324 C328 1.255 . A
O325 C331 1.257 . A
O326 C331 1.255 . A
H336 N338 0.860 . S
H337 N338 0.861 . S
N338 C342 1.466 . S
H339 C342 0.979 . S
H340 C343 0.969 . S
H341 C343 0.969 . S
C342 C343 1.510 . S
H344 N346 0.860 . S
H345 N346 0.861 . S
N346 C350 1.466 . S
H347 C350 0.979 . S
H348 C351 0.969 . S
H349 C351 0.969 . S
C350 C351 1.510 1_455 S
H352 N354 0.860 . S
H353 N354 0.861 . S
N354 C358 1.466 . S
H355 C358 0.979 1_554 S
H356 C359 0.969 1_556 S
H357 C359 0.969 . S
C358 C359 1.510 1_556 S
H360 N362 0.860 . S
H361 N362 0.861 . S
N362 C366 1.466 . S
H363 C366 0.979 1_455 S
H364 C367 0.969 1_655 S
H365 C367 0.969 . S
C366 C367 1.510 1_655 S
H368 N370 0.860 . S
H369 N370 0.861 . S
N370 C374 1.466 . S
H371 C374 0.979 . S
H372 C375 0.969 . S
H373 C375 0.969 . S
C374 C375 1.510 . S
H376 N378 0.860 . S
H377 N378 0.861 . S
N378 C382 1.466 1_655 S
H379 C382 0.979 . S
H380 C383 0.967 1_455 S
H381 C383 0.969 1_455 S
C382 C383 1.510 1_445 S
H384 N386 0.860 1_565 S
H385 N386 0.861 . S
N386 C390 1.466 . S
H387 C390 0.979 1_565 S
H388 C391 0.969 1_545 S
H389 C391 0.969 . S
C390 C391 1.510 1_545 S
H392 N394 0.860 . S
H393 N394 0.861 . S
N394 C398 1.466 . S
H395 C398 0.979 . S
H396 C399 0.969 . S
H397 C399 0.969 . S
C398 C399 1.510 . S
H400 N402 0.860 . S
H401 N402 0.861 . S
N402 C406 1.466 1_545 S
H403 C406 0.979 . S
H404 C407 0.969 . S
H405 C407 0.969 1_565 S
C406 C407 1.510 1_565 S
H408 N410 0.860 . S
H409 N410 0.861 . S
N410 C414 1.466 . S
H411 C414 0.979 . S
H412 C415 0.969 . S
H413 C415 0.969 . S
C414 C415 1.510 . S
H416 N418 0.860 . S
H417 N418 0.861 . S
N418 C422 1.466 . S
H419 C422 0.979 . S
H420 C423 0.969 . S
H421 C423 0.969 . S
C422 C423 1.510 1_556 S
H424 N426 0.860 . S
H425 N426 0.861 . S
N426 C430 1.466 . S
H427 C430 0.979 1_556 S
H428 C431 0.970 1_554 S
H429 C431 0.968 . S
C430 C431 1.511 1_654 S
H432 N434 0.860 . S
H433 N434 0.861 . S
N434 C438 1.466 . S
H435 C438 0.979 . S
H436 C439 0.969 . S
H437 C439 0.969 . S
C438 C439 1.510 . S
H440 N442 0.860 . S
H441 N442 0.861 . S
N442 C446 1.458 1_554 S
H443 C446 0.986 1_565 S
H444 C447 0.969 1_545 S
H445 C447 0.969 1_556 S
C446 C447 1.506 1_546 S
H448 N450 0.860 . S
H449 N450 0.861 . S
N450 C454 1.466 . S
H451 C454 0.979 . S
H452 C455 0.969 . S
H453 C455 0.969 . S
C454 C455 1.510 . S
H456 N458 0.860 . S
H457 N458 0.861 . S
N458 C462 1.466 . S
H459 C462 0.979 . S
H460 C463 0.969 . S
H461 C463 0.969 . S
C462 C463 1.510 . S
H464 N466 0.860 . S
H465 N466 0.861 . S
N466 C470 1.466 . S
H467 C470 0.979 . S
H468 C471 0.969 . S
H469 C471 0.969 . S
C470 C471 1.510 . S
H472 N474 0.860 . S
H473 N474 0.861 . S
N474 C478 1.466 . S
H475 C478 0.979 . S
H476 C479 0.969 . S
H477 C479 0.969 . S
C478 C479 1.510 . S
H480 N482 0.860 . S
H481 N482 0.861 . S
N482 C486 1.466 . S
H483 C486 0.979 . S
H484 C487 0.969 . S
H485 C487 0.969 . S
C486 C487 1.510 . S
H488 N490 0.860 . S
H489 N490 0.861 . S
N490 C494 1.466 . S
H491 C494 0.979 . S
H492 C495 0.969 . S
H493 C495 0.969 . S
C494 C495 1.510 . S
H496 N498 0.860 . S
H497 N498 0.861 . S
N498 C502 1.466 . S
H499 C502 0.979 . S
H500 C503 0.969 . S
H501 C503 0.969 . S
C502 C503 1.510 . S
H504 N506 0.860 . S
H505 N506 0.861 . S
N506 C510 1.466 . S
H507 C510 0.979 . S
H508 C511 0.969 . S
H509 C511 0.969 . S
C510 C511 1.510 . S
H512 N514 0.860 . S
H513 N514 0.861 . S
N514 C518 1.466 . S
H515 C518 0.979 . S
H516 C519 0.969 . S
H517 C519 0.969 . S
C518 C519 1.510 . S
H520 N522 0.860 . S
H521 N522 0.861 . S
N522 C526 1.466 . S
H523 C526 0.979 . S
H524 C527 0.969 . S
H525 C527 0.969 . S
C526 C527 1.510 . S
H528 N530 0.860 . S
H529 N530 0.861 . S
N530 C534 1.466 . S
H531 C534 0.979 . S
H532 C535 0.969 . S
H533 C535 0.969 . S
C534 C535 1.510 . S
H536 N538 0.860 . S
H537 N538 0.861 . S
N538 C542 1.466 . S
H539 C542 0.979 . S
H540 C543 0.969 . S
H541 C543 0.969 . S
C542 C543 1.510 . S
H544 N546 0.860 . S
H545 N546 0.861 . S
N546 C550 1.466 . S
H547 C550 0.979 . S
H548 C551 0.969 . S
H549 C551 0.969 . S
C550 C551 1.510 . S
H552 N554 0.860 . S
H553 N554 0.861 . S
N554 C558 1.466 . S
H555 C558 0.979 . S
H556 C559 0.969 . S
H557 C559 0.969 . S
C558 C559 1.510 . S
H560 N562 0.860 . S
H561 N562 0.861 . S
N562 C566 1.466 . S
H563 C566 0.979 . S
H564 C567 0.969 . S
H565 C567 0.969 . S
C566 C567 1.510 . S
H568 N570 0.860 . S
H569 N570 0.861 . S
N570 C574 1.466 . S
H571 C574 0.979 . S
H572 C575 0.969 . S
H573 C575 0.969 . S
C574 C575 1.510 . S
H576 N578 0.860 . S
H577 N578 0.861 . S
N578 C582 1.466 . S
H579 C582 0.979 . S
H580 C583 0.969 . S
H581 C583 0.969 . S
C582 C583 1.510 . S
H584 N586 0.860 . S
H585 N586 0.861 . S
N586 C590 1.466 . S
H587 C590 0.979 . S
H588 C591 0.969 . S
H589 C591 0.969 . S
C590 C591 1.510 . S
H592 N594 0.860 . S
H593 N594 0.861 . S
N594 C598 1.466 . S
H595 C598 0.979 . S
H596 C599 0.969 . S
H597 C599 0.969 . S
C598 C599 1.510 . S
H600 N602 0.860 1_455 S
H601 N602 0.861 1_455 S
N602 C606 1.466 . S
H603 C606 0.979 . S
H604 C607 0.969 . S
H605 C607 0.969 . S
C606 C607 1.510 . S
H608 N610 0.860 . S
H609 N610 0.861 . S
N610 C614 1.466 . S
H611 C614 0.979 . S
H612 C615 0.969 . S
H613 C615 0.969 . S
C614 C615 1.510 . S
H616 N618 0.860 . S
H617 N618 0.861 . S
N618 C622 1.466 . S
H619 C622 0.979 . S
H620 C623 0.969 . S
H621 C623 0.969 . S
C622 C623 1.510 . S
H624 N626 0.860 . S
H625 N626 0.861 . S
N626 C630 1.466 . S
H627 C630 0.979 . S
H628 C631 0.969 . S
H629 C631 0.969 . S
C630 C631 1.510 . S
H632 N634 0.860 . S
H633 N634 0.861 . S
N634 C638 1.466 . S
H635 C638 0.979 . S
H636 C639 0.969 . S
H637 C639 0.969 . S
C638 C639 1.510 . S
H640 N642 0.860 . S
H641 N642 0.861 . S
N642 C646 1.466 . S
H643 C646 0.979 . S
H644 C647 0.969 . S
H645 C647 0.969 . S
C646 C647 1.510 . S
H648 N650 0.860 . S
H649 N650 0.861 . S
N650 C654 1.466 . S
H651 C654 0.979 . S
H652 C655 0.969 . S
H653 C655 0.969 . S
C654 C655 1.510 . S
C342 C139 1.559 . S
C343 C13 1.597 . S
C350 C121 1.524 1_455 S
C351 C16 1.578 1_655 S
C358 C205 1.483 . S
C359 C37 1.503 . S
C366 C184 1.369 . S
C367 C58 1.405 . S
C374 C289 1.318 . S
C375 C79 1.367 . S
C382 C97 1.531 . S
C383 C76 1.576 . S
C390 C55 1.743 . S
C391 C265 1.779 . S
C398 C100 1.461 . S
C399 C331 1.482 . S
C406 C118 1.725 . S
C407 C223 1.750 . S
C414 C226 1.401 . S
C415 C142 1.464 . S
C422 C163 1.699 . S
C423 C247 1.723 . S
C430 C34 1.736 . S
C431 C160 1.761 . S
C438 C307 1.527 . S
C439 C181 1.581 . S
C446 C202 1.737 . S
C447 C244 1.770 . S
C454 C310 1.570 . S
C455 C268 1.584 . S
C462 C328 1.736 . S
C463 C286 1.762 . S
C470 C277 1.306 . S
C471 C4 1.405 . S
C478 C285 1.436 . S
C479 C12 1.453 . S
C486 C138 1.549 . S
C487 C33 1.587 . S
C494 C201 1.508 . S
C495 C54 1.579 . S
C502 C264 1.564 . S
C503 C75 1.601 . S
C510 C88 1.307 . S
C511 C214 1.404 . S
C518 C46 1.212 . S
C519 C193 1.308 . S
C526 C222 1.616 . S
C527 C96 1.619 . S
C534 C256 1.360 . S
C535 C67 1.218 . S
C542 C109 1.215 . S
C543 C235 1.328 . S
C550 C25 1.204 . S
C551 C130 1.436 . S
C558 C243 1.442 . S
C559 C117 1.484 . S
C566 C306 1.364 . S
C567 C159 1.427 . S
C574 C298 1.324 . S
C575 C151 1.393 . S
C582 C172 1.178 . S
C583 C319 1.434 . S
C590 C180 1.382 . S
C591 C327 1.433 . S
C598 C152 0.888 . S
C599 C5 1.052 . S
C606 C173 0.833 . S
C607 C26 0.998 . S
C614 C89 1.095 . S
C615 C47 1.010 . S
C622 C110 1.114 . S
C623 C68 1.024 . S
C630 C131 1.086 . S
C631 C320 0.967 . S
C638 C194 0.863 . S
C639 C215 0.881 . S
C646 C257 1.080 . S
C647 C236 0.959 . S
C654 C278 1.065 . S
C655 C299 0.967 . S
