# Generated by pormake.
# Topology nom, (4,4)-cn, num edge types: 1
# Building blocks:
#     Node 0, Type 0, BuildingBlock: N448, # of connection points: 4
#     Node 1, Type 0, BuildingBlock: N448, # of connection points: 4
#     Node 2, Type 0, BuildingBlock: N448, # of connection points: 4
#     Node 3, Type 0, BuildingBlock: N448, # of connection points: 4
#     Node 4, Type 0, BuildingBlock: N448, # of connection points: 4
#     Node 5, Type 0, BuildingBlock: N448, # of connection points: 4
#     Node 6, Type 1, BuildingBlock: N700, # of connection points: 4
#     Node 7, Type 1, BuildingBlock: N700, # of connection points: 4
#     Node 8, Type 1, BuildingBlock: N700, # of connection points: 4
#     Node 9, Type 1, BuildingBlock: N700, # of connection points: 4
#     Node 10, Type 1, BuildingBlock: N700, # of connection points: 4
#     Node 11, Type 1, BuildingBlock: N700, # of connection points: 4
#     Edge 12, Type (0, 1), BuildingBlock: E92, # of connection points: 2
#     Edge 13, Type (0, 1), BuildingBlock: E92, # of connection points: 2
#     Edge 14, Type (0, 1), BuildingBlock: E92, # of connection points: 2
#     Edge 15, Type (0, 1), BuildingBlock: E92, # of connection points: 2
#     Edge 16, Type (0, 1), BuildingBlock: E92, # of connection points: 2
#     Edge 17, Type (0, 1), BuildingBlock: E92, # of connection points: 2
#     Edge 18, Type (0, 1), BuildingBlock: E92, # of connection points: 2
#     Edge 19, Type (0, 1), BuildingBlock: E92, # of connection points: 2
#     Edge 20, Type (0, 1), BuildingBlock: E92, # of connection points: 2
#     Edge 21, Type (0, 1), BuildingBlock: E92, # of connection points: 2
#     Edge 22, Type (0, 1), BuildingBlock: E92, # of connection points: 2
#     Edge 23, Type (0, 1), BuildingBlock: E92, # of connection points: 2
#     Edge 24, Type (0, 1), BuildingBlock: E92, # of connection points: 2
#     Edge 25, Type (0, 1), BuildingBlock: E92, # of connection points: 2
#     Edge 26, Type (0, 1), BuildingBlock: E92, # of connection points: 2
#     Edge 27, Type (0, 1), BuildingBlock: E92, # of connection points: 2
#     Edge 28, Type (0, 1), BuildingBlock: E92, # of connection points: 2
#     Edge 29, Type (0, 1), BuildingBlock: E92, # of connection points: 2
#     Edge 30, Type (0, 1), BuildingBlock: E92, # of connection points: 2
#     Edge 31, Type (0, 1), BuildingBlock: E92, # of connection points: 2
#     Edge 32, Type (0, 1), BuildingBlock: E92, # of connection points: 2
#     Edge 33, Type (0, 1), BuildingBlock: E92, # of connection points: 2
#     Edge 34, Type (0, 1), BuildingBlock: E92, # of connection points: 2
#     Edge 35, Type (0, 1), BuildingBlock: E92, # of connection points: 2
# Relax obj value: 0.029
# Max RMSD: 0.125
# Mean RMSD: 0.087
data_nom+N448+N700+E92
_symmetry_space_group_name_H-M    P1
_symmetry_Int_Tables_number       1
_symmetry_cell_setting            triclinic
loop_
_symmetry_equiv_pos_as_xyz
'x, y, z'
_cell_length_a     42.890
_cell_length_b     41.758
_cell_length_c     46.323
_cell_angle_alpha  90.162
_cell_angle_beta   90.131
_cell_angle_gamma  123.274
loop_
_atom_site_label
_atom_site_type_symbol
_atom_site_fract_x
_atom_site_fract_y
_atom_site_fract_z
_atom_type_partial_charge
U0 U 0.51080 0.50013 0.16617 0.00000
C1 C 0.49435 0.52755 0.10376 0.00000
O2 O 0.49333 0.50026 0.11733 0.00000
O3 O 0.50881 0.56077 0.11155 0.00000
C4 C 0.54835 0.45642 0.13631 0.00000
O5 O 0.54641 0.48599 0.13565 0.00000
O6 O 0.52897 0.42700 0.15004 0.00000
O7 O 0.55403 0.49613 0.19541 0.00000
O8 O 0.58146 0.46924 0.21478 0.00000
O9 O 0.46086 0.50929 0.16618 0.00000
O10 O 0.43132 0.53782 0.15603 0.00000
C11 C 0.55479 0.47231 0.21180 0.00000
C12 C 0.45584 0.53640 0.16844 0.00000
U13 U 0.02488 0.51594 0.33337 0.00000
C14 C 0.97859 0.49841 0.27149 0.00000
O15 O 0.00433 0.49743 0.28477 0.00000
O16 O 0.96239 0.51344 0.27946 0.00000
C17 C 0.10784 0.55390 0.30252 0.00000
O18 O 0.07697 0.55201 0.30222 0.00000
O19 O 0.11549 0.53410 0.31619 0.00000
O20 O 0.07701 0.56061 0.36198 0.00000
O21 O 0.13376 0.58887 0.38069 0.00000
O22 O 0.96114 0.46480 0.33414 0.00000
O23 O 0.90072 0.43450 0.32471 0.00000
C24 C 0.10140 0.56151 0.37810 0.00000
C25 C 0.92933 0.45977 0.33677 0.00000
U26 U 0.02174 0.49487 0.83486 0.00000
C27 C 0.06732 0.51224 0.77292 0.00000
O28 O 0.04205 0.51369 0.78644 0.00000
O29 O 0.08303 0.49653 0.78047 0.00000
C30 C 0.93875 0.45881 0.80403 0.00000
O31 O 0.96926 0.45997 0.80350 0.00000
O32 O 0.93178 0.47888 0.81812 0.00000
O33 O 0.96951 0.45056 0.86309 0.00000
O34 O 0.91301 0.42310 0.88176 0.00000
O35 O 0.08583 0.54511 0.83604 0.00000
O36 O 0.14608 0.57445 0.82665 0.00000
C37 C 0.94555 0.45005 0.87940 0.00000
C38 C 0.11736 0.54940 0.83849 0.00000
U39 U 0.54376 0.00209 0.97432 0.00000
C40 C 0.52475 0.95533 0.03646 0.00000
O41 O 0.52454 0.98183 0.02271 0.00000
O42 O 0.53913 0.93816 0.02922 0.00000
C43 C 0.58116 0.08790 0.00480 0.00000
O44 O 0.57880 0.05593 0.00558 0.00000
O45 O 0.56250 0.09596 0.99043 0.00000
O46 O 0.58834 0.05493 0.94610 0.00000
O47 O 0.61696 0.11300 0.92723 0.00000
O48 O 0.49336 0.93687 0.97317 0.00000
O49 O 0.46290 0.87490 0.98278 0.00000
C50 C 0.58997 0.07996 0.92959 0.00000
C51 C 0.48801 0.90394 0.97095 0.00000
U52 U 0.50187 0.01040 0.47569 0.00000
C53 C 0.52106 0.05787 0.53784 0.00000
O54 O 0.52080 0.03090 0.52428 0.00000
O55 O 0.50735 0.07554 0.53022 0.00000
C56 C 0.46267 0.92468 0.50612 0.00000
O57 O 0.46573 0.95701 0.50672 0.00000
O58 O 0.48105 0.91593 0.49214 0.00000
O59 O 0.45697 0.95770 0.44707 0.00000
O60 O 0.42758 0.89941 0.42811 0.00000
O61 O 0.55312 0.07522 0.47497 0.00000
O62 O 0.58451 0.13733 0.48468 0.00000
C63 C 0.45496 0.93224 0.43071 0.00000
C64 C 0.55918 0.10841 0.47262 0.00000
U65 U 0.53225 0.51804 0.64276 0.00000
C66 C 0.50463 0.53389 0.70515 0.00000
O67 O 0.53158 0.53568 0.69160 0.00000
O68 O 0.47221 0.51835 0.69735 0.00000
C69 C 0.57646 0.48128 0.67264 0.00000
O70 O 0.54718 0.48241 0.67328 0.00000
O71 O 0.60501 0.50170 0.65892 0.00000
O72 O 0.53743 0.47444 0.61352 0.00000
O73 O 0.56480 0.44746 0.59416 0.00000
O74 O 0.52181 0.56827 0.64275 0.00000
O75 O 0.49278 0.59734 0.65289 0.00000
C76 C 0.56101 0.47433 0.59714 0.00000
C77 C 0.49487 0.57260 0.64048 0.00000
Cu78 Cu 0.80818 0.42078 0.05047 0.00000
Cu79 Cu 0.80645 0.41038 0.10881 0.00000
Cu80 Cu 0.75295 0.35457 0.07302 0.00000
Cu81 Cu 0.75688 0.41914 0.08571 0.00000
H82 H 0.82387 0.36870 0.14902 0.00000
H83 H 0.71848 0.51030 0.09819 0.00000
H84 H 0.84753 0.39541 0.01669 0.00000
H85 H 0.75857 0.49014 0.09226 0.00000
H86 H 0.86737 0.37940 0.18304 0.00000
H87 H 0.90594 0.48986 0.18093 0.00000
H88 H 0.83860 0.47985 0.00225 0.00000
H89 H 0.67761 0.38611 0.09458 0.00000
H90 H 0.73998 0.28191 0.09390 0.00000
H91 H 0.70232 0.30300 0.02642 0.00000
H92 H 0.67542 0.23951 0.01074 0.00000
H93 H 0.71198 0.21911 0.08170 0.00000
H94 H 0.87503 0.49678 0.96232 0.00000
H95 H 0.63570 0.40318 0.10000 0.00000
H96 H 0.88038 0.40519 0.97529 0.00000
H97 H 0.86377 0.47745 0.14546 0.00000
C98 C 0.84096 0.39368 0.15511 0.00000
C99 C 0.70899 0.48429 0.09673 0.00000
C100 C 0.85266 0.41587 0.00508 0.00000
C101 C 0.73311 0.47184 0.09357 0.00000
C102 C 0.86699 0.39995 0.17593 0.00000
C103 C 0.88985 0.46482 0.17450 0.00000
C104 C 0.84806 0.46528 0.99701 0.00000
C105 C 0.68660 0.41210 0.09483 0.00000
C106 C 0.72620 0.27337 0.07685 0.00000
C107 C 0.70489 0.28609 0.03755 0.00000
C108 C 0.68792 0.24749 0.02836 0.00000
C109 C 0.70958 0.23544 0.06967 0.00000
C110 C 0.89216 0.43610 0.18616 0.00000
C111 C 0.68995 0.22237 0.04526 0.00000
C112 C 0.86964 0.47549 0.97305 0.00000
C113 C 0.66087 0.42202 0.09785 0.00000
C114 C 0.87338 0.42182 0.98080 0.00000
C115 C 0.86400 0.45711 0.15324 0.00000
C116 C 0.88323 0.45404 0.96501 0.00000
C117 C 0.67237 0.45867 0.09764 0.00000
I118 I 0.82734 0.47912 0.08605 0.00000
I119 I 0.73722 0.38818 0.03209 0.00000
I120 I 0.73576 0.36385 0.12637 0.00000
I121 I 0.82320 0.36995 0.07515 0.00000
N122 N 0.72177 0.43593 0.09234 0.00000
N123 N 0.83938 0.42193 0.14335 0.00000
N124 N 0.72415 0.29800 0.06170 0.00000
N125 N 0.83976 0.43553 0.01340 0.00000
Cu126 Cu 0.42679 0.79395 0.25657 0.00000
Cu127 Cu 0.41786 0.79159 0.19800 0.00000
Cu128 Cu 0.36274 0.73709 0.23303 0.00000
Cu129 Cu 0.42575 0.74081 0.22199 0.00000
H130 H 0.37824 0.80921 0.15647 0.00000
H131 H 0.51446 0.70091 0.21243 0.00000
H132 H 0.40157 0.83486 0.28913 0.00000
H133 H 0.49488 0.74227 0.21729 0.00000
H134 H 0.38947 0.85357 0.12215 0.00000
H135 H 0.49689 0.89296 0.12664 0.00000
H136 H 0.48330 0.82558 0.30591 0.00000
H137 H 0.39359 0.65927 0.21333 0.00000
H138 H 0.29252 0.72374 0.21043 0.00000
H139 H 0.31152 0.68564 0.27895 0.00000
H140 H 0.24941 0.65831 0.29332 0.00000
H141 H 0.23116 0.69524 0.22135 0.00000
H142 H 0.49906 0.86342 0.34577 0.00000
H143 H 0.41015 0.61605 0.20892 0.00000
H144 H 0.41034 0.86906 0.33033 0.00000
H145 H 0.48397 0.84998 0.16235 0.00000
C146 C 0.40269 0.82665 0.15081 0.00000
C147 C 0.48913 0.69123 0.21334 0.00000
C148 C 0.42124 0.84020 0.30121 0.00000
C149 C 0.47704 0.71612 0.21584 0.00000
C150 C 0.40930 0.85320 0.12981 0.00000
C151 C 0.47237 0.87654 0.13263 0.00000
C152 C 0.46908 0.83541 0.31063 0.00000
C153 C 0.41887 0.66844 0.21364 0.00000
C154 C 0.28383 0.70976 0.22743 0.00000
C155 C 0.29532 0.68822 0.26734 0.00000
C156 C 0.25757 0.67096 0.27575 0.00000
C157 C 0.24677 0.69285 0.23384 0.00000
C158 C 0.44471 0.87888 0.12018 0.00000
C159 C 0.23351 0.67295 0.25816 0.00000
C160 C 0.47858 0.85783 0.33457 0.00000
C161 C 0.42849 0.64191 0.21123 0.00000
C162 C 0.42660 0.86175 0.32536 0.00000
C163 C 0.46436 0.85019 0.15403 0.00000
C164 C 0.45761 0.87196 0.34186 0.00000
C165 C 0.46414 0.65363 0.21225 0.00000
I166 I 0.48426 0.81312 0.22228 0.00000
I167 I 0.39451 0.72123 0.27504 0.00000
I168 I 0.37279 0.71882 0.18018 0.00000
I169 I 0.37795 0.80929 0.23035 0.00000
N170 N 0.44209 0.70457 0.21627 0.00000
N171 N 0.42990 0.82507 0.16332 0.00000
N172 N 0.30745 0.70774 0.24325 0.00000
N173 N 0.44047 0.82678 0.29359 0.00000
Cu174 Cu 0.40614 0.58405 0.92796 0.00000
Cu175 Cu 0.41700 0.59677 0.86992 0.00000
Cu176 Cu 0.41837 0.64949 0.90636 0.00000
Cu177 Cu 0.35577 0.58329 0.89191 0.00000
H178 H 0.47963 0.64264 0.83121 0.00000
H179 H 0.22167 0.48645 0.87619 0.00000
H180 H 0.47222 0.61201 0.96310 0.00000
H181 H 0.28398 0.51003 0.88338 0.00000
H182 H 0.51469 0.63588 0.79765 0.00000
H183 H 0.43987 0.52409 0.79727 0.00000
H184 H 0.37478 0.52332 0.97499 0.00000
H185 H 0.30818 0.61211 0.88263 0.00000
H186 H 0.48106 0.72461 0.88733 0.00000
H187 H 0.41797 0.69765 0.95354 0.00000
H188 H 0.45554 0.76098 0.97055 0.00000
H189 H 0.51688 0.78725 0.90083 0.00000
H190 H 0.39370 0.50700 0.01503 0.00000
H191 H 0.24718 0.59157 0.87601 0.00000
H192 H 0.49480 0.60278 0.00476 0.00000
H193 H 0.40791 0.53266 0.83236 0.00000
C194 C 0.47159 0.61819 0.82471 0.00000
C195 C 0.23879 0.51267 0.87823 0.00000
C196 C 0.45591 0.59076 0.97422 0.00000
C197 C 0.27664 0.52722 0.88215 0.00000
C198 C 0.49272 0.61430 0.80417 0.00000
C199 C 0.44901 0.54867 0.80414 0.00000
C200 C 0.39956 0.53892 0.98079 0.00000
C201 C 0.29051 0.58582 0.88180 0.00000
C202 C 0.47510 0.73186 0.90438 0.00000
C203 C 0.43856 0.71576 0.94293 0.00000
C204 C 0.46076 0.75423 0.95293 0.00000
C205 C 0.49705 0.76974 0.91235 0.00000
C206 C 0.48159 0.57901 0.79333 0.00000
C207 C 0.48951 0.78101 0.93678 0.00000
C208 C 0.41057 0.52905 0.00483 0.00000
C209 C 0.25364 0.57379 0.87806 0.00000
C210 C 0.47044 0.58523 0.99867 0.00000
C211 C 0.42953 0.55404 0.82516 0.00000
C212 C 0.44668 0.55199 0.01370 0.00000
C213 C 0.22748 0.53662 0.87743 0.00000
I214 I 0.36653 0.52621 0.89107 0.00000
I215 I 0.36585 0.61208 0.94604 0.00000
I216 I 0.39260 0.64051 0.85248 0.00000
I217 I 0.47529 0.63869 0.90498 0.00000
N218 N 0.30214 0.56357 0.88420 0.00000
N219 N 0.44024 0.58838 0.83563 0.00000
N220 N 0.44692 0.70565 0.91879 0.00000
N221 N 0.42237 0.56973 0.96513 0.00000
Cu222 Cu 0.23455 0.59638 0.55292 0.00000
Cu223 Cu 0.23651 0.60698 0.61130 0.00000
Cu224 Cu 0.28974 0.66276 0.57586 0.00000
Cu225 Cu 0.28613 0.59838 0.58827 0.00000
H226 H 0.21904 0.64862 0.65165 0.00000
H227 H 0.32508 0.50767 0.60045 0.00000
H228 H 0.19484 0.62139 0.51917 0.00000
H229 H 0.28478 0.52757 0.59452 0.00000
H230 H 0.17564 0.63787 0.68554 0.00000
H231 H 0.13744 0.52750 0.68290 0.00000
H232 H 0.20410 0.53714 0.50439 0.00000
H233 H 0.36549 0.63172 0.59744 0.00000
H234 H 0.30251 0.73538 0.59707 0.00000
H235 H 0.34005 0.71427 0.52957 0.00000
H236 H 0.36667 0.77767 0.51421 0.00000
H237 H 0.33026 0.79811 0.58519 0.00000
H238 H 0.16747 0.51994 0.46432 0.00000
H239 H 0.40760 0.61491 0.60288 0.00000
H240 H 0.16177 0.61132 0.47766 0.00000
H241 H 0.17951 0.53994 0.64756 0.00000
C242 C 0.20205 0.62365 0.65760 0.00000
C243 C 0.33448 0.53365 0.59912 0.00000
C244 C 0.18974 0.60091 0.50746 0.00000
C245 C 0.31022 0.54595 0.59596 0.00000
C246 C 0.17608 0.61735 0.67834 0.00000
C247 C 0.15343 0.55254 0.67660 0.00000
C248 C 0.19453 0.55161 0.49920 0.00000
C249 C 0.35659 0.60576 0.59756 0.00000
C250 C 0.31622 0.74390 0.58008 0.00000
C251 C 0.33745 0.73117 0.54077 0.00000
C252 C 0.35426 0.76972 0.53177 0.00000
C253 C 0.33268 0.78180 0.57309 0.00000
C254 C 0.15105 0.58121 0.68838 0.00000
C255 C 0.35219 0.79483 0.54878 0.00000
C256 C 0.17283 0.54123 0.47514 0.00000
C257 C 0.38244 0.59600 0.60060 0.00000
C258 C 0.16888 0.59478 0.48311 0.00000
C259 C 0.17922 0.56026 0.65543 0.00000
C260 C 0.15907 0.56254 0.46717 0.00000
C261 C 0.37107 0.55938 0.60020 0.00000
I262 I 0.21576 0.53823 0.58821 0.00000
I263 I 0.30547 0.62916 0.53482 0.00000
I264 I 0.30725 0.65378 0.62921 0.00000
I265 I 0.21939 0.64711 0.57779 0.00000
N266 N 0.32143 0.58182 0.59491 0.00000
N267 N 0.20371 0.59543 0.64573 0.00000
N268 N 0.31831 0.71929 0.56483 0.00000
N269 N 0.20280 0.58138 0.51572 0.00000
Cu270 Cu 0.61473 0.22310 0.75943 0.00000
Cu271 Cu 0.62342 0.22510 0.70089 0.00000
Cu272 Cu 0.67881 0.27962 0.73625 0.00000
Cu273 Cu 0.61596 0.27623 0.72498 0.00000
H274 H 0.66264 0.20693 0.65946 0.00000
H275 H 0.52776 0.31679 0.71520 0.00000
H276 H 0.63972 0.18206 0.79198 0.00000
H277 H 0.54704 0.27519 0.72003 0.00000
H278 H 0.65105 0.16231 0.62500 0.00000
H279 H 0.54379 0.12351 0.62901 0.00000
H280 H 0.55840 0.19200 0.80850 0.00000
H281 H 0.64848 0.35780 0.71663 0.00000
H282 H 0.74879 0.29244 0.71393 0.00000
H283 H 0.73034 0.33116 0.78247 0.00000
H284 H 0.79245 0.35826 0.79713 0.00000
H285 H 0.81015 0.32070 0.72514 0.00000
H286 H 0.54261 0.15433 0.84821 0.00000
H287 H 0.63222 0.40125 0.71227 0.00000
H288 H 0.63093 0.14802 0.83307 0.00000
H289 H 0.55705 0.16674 0.66486 0.00000
C290 C 0.63815 0.18956 0.65367 0.00000
C291 C 0.55307 0.32634 0.71622 0.00000
C292 C 0.62014 0.17689 0.80398 0.00000
C293 C 0.56497 0.30130 0.71870 0.00000
C294 C 0.63133 0.16285 0.63258 0.00000
C295 C 0.56834 0.13985 0.63512 0.00000
C296 C 0.57253 0.18206 0.81324 0.00000
C297 C 0.62322 0.34876 0.71683 0.00000
C298 C 0.75760 0.30650 0.73099 0.00000
C299 C 0.74643 0.32841 0.77091 0.00000
C300 C 0.78419 0.34552 0.77950 0.00000
C301 C 0.79466 0.32327 0.73757 0.00000
C302 C 0.59585 0.13726 0.62277 0.00000
C303 C 0.80808 0.34328 0.76199 0.00000
C304 C 0.56301 0.15975 0.83709 0.00000
C305 C 0.61380 0.37543 0.71445 0.00000
C306 C 0.61476 0.15543 0.82806 0.00000
C307 C 0.57656 0.16636 0.65662 0.00000
C308 C 0.58385 0.14548 0.84442 0.00000
C309 C 0.57820 0.36390 0.71531 0.00000
I310 I 0.55721 0.20405 0.72488 0.00000
I311 I 0.64741 0.29596 0.77819 0.00000
I312 I 0.66872 0.29773 0.68340 0.00000
I313 I 0.66320 0.20726 0.73334 0.00000
N314 N 0.59987 0.31267 0.71929 0.00000
N315 N 0.61109 0.19139 0.66609 0.00000
N316 N 0.73413 0.30876 0.74674 0.00000
N317 N 0.60102 0.19045 0.79632 0.00000
Cu318 Cu 0.64718 0.42187 0.42803 0.00000
Cu319 Cu 0.63579 0.40865 0.36995 0.00000
Cu320 Cu 0.63448 0.35612 0.40630 0.00000
Cu321 Cu 0.69710 0.42205 0.39203 0.00000
H322 H 0.57278 0.36263 0.33110 0.00000
H323 H 0.83118 0.51831 0.37662 0.00000
H324 H 0.58145 0.39450 0.46305 0.00000
H325 H 0.76899 0.49505 0.38369 0.00000
H326 H 0.53757 0.36928 0.29751 0.00000
H327 H 0.61273 0.48099 0.29739 0.00000
H328 H 0.67915 0.48304 0.47519 0.00000
H329 H 0.74434 0.39281 0.38276 0.00000
H330 H 0.57142 0.28095 0.38709 0.00000
H331 H 0.63503 0.30825 0.45341 0.00000
H332 H 0.59740 0.24510 0.47028 0.00000
H333 H 0.53551 0.21844 0.40045 0.00000
H334 H 0.66071 0.49987 0.51523 0.00000
H335 H 0.80522 0.41302 0.37624 0.00000
H336 H 0.55934 0.40425 0.50470 0.00000
H337 H 0.64486 0.47255 0.33250 0.00000
C338 C 0.58086 0.38704 0.32465 0.00000
C339 C 0.81399 0.49212 0.37859 0.00000
C340 C 0.59791 0.41583 0.47422 0.00000
C341 C 0.77621 0.47777 0.38245 0.00000
C342 C 0.55964 0.39087 0.30409 0.00000
C343 C 0.60356 0.45646 0.30421 0.00000
C344 C 0.65442 0.46758 0.48094 0.00000
C345 C 0.76208 0.41907 0.38199 0.00000
C346 C 0.57748 0.27380 0.40413 0.00000
C347 C 0.61432 0.29010 0.44275 0.00000
C348 C 0.59208 0.25174 0.45266 0.00000
C349 C 0.55547 0.23600 0.41202 0.00000
C350 C 0.57082 0.42610 0.29332 0.00000
C351 C 0.56314 0.22488 0.43644 0.00000
C352 C 0.64370 0.47775 0.50498 0.00000
C353 C 0.79888 0.43091 0.37831 0.00000
C354 C 0.58366 0.42167 0.49867 0.00000
C355 C 0.62313 0.45116 0.32525 0.00000
C356 C 0.60764 0.45502 0.51377 0.00000
C357 C 0.82515 0.46804 0.37777 0.00000
I358 I 0.68665 0.47933 0.39127 0.00000
I359 I 0.68737 0.39372 0.44610 0.00000
I360 I 0.65976 0.36450 0.35247 0.00000
I361 I 0.57776 0.36723 0.40489 0.00000
N362 N 0.75062 0.44147 0.38442 0.00000
N363 N 0.61237 0.41687 0.33565 0.00000
N364 N 0.60584 0.30006 0.41861 0.00000
N365 N 0.63139 0.43665 0.46520 0.00000
C366 C 0.44422 0.60771 0.14954 0.00000
C367 C 0.44952 0.57805 0.15111 0.00000
C368 C 0.46374 0.57236 0.17649 0.00000
C369 C 0.47160 0.59626 0.19989 0.00000
H370 H 0.43453 0.61131 0.13281 0.00000
C371 C 0.45320 0.63180 0.17255 0.00000
C372 C 0.46684 0.62657 0.19805 0.00000
H373 H 0.44366 0.56182 0.13534 0.00000
H374 H 0.45009 0.65210 0.17111 0.00000
H375 H 0.48015 0.59205 0.21702 0.00000
C376 C 0.89169 0.45078 0.40646 0.00000
C377 C 0.91485 0.45608 0.38381 0.00000
C378 C 0.91118 0.46998 0.35734 0.00000
C379 C 0.88474 0.47892 0.35451 0.00000
H380 H 0.89430 0.44185 0.42406 0.00000
C381 C 0.86493 0.45864 0.40303 0.00000
C382 C 0.86098 0.47289 0.37724 0.00000
H383 H 0.93289 0.45043 0.38609 0.00000
H384 H 0.84905 0.45438 0.41828 0.00000
H385 H 0.88279 0.48904 0.33725 0.00000
C386 C 0.90571 0.36250 0.77506 0.00000
C387 C 0.92577 0.39922 0.78613 0.00000
C388 C 0.90853 0.41939 0.78984 0.00000
C389 C 0.87127 0.40176 0.78284 0.00000
H390 H 0.91705 0.34903 0.77281 0.00000
C391 C 0.86920 0.34591 0.76741 0.00000
C392 C 0.85129 0.36495 0.77120 0.00000
H393 H 0.95073 0.41062 0.79113 0.00000
H394 H 0.85608 0.32137 0.75953 0.00000
H395 H 0.85942 0.41461 0.78592 0.00000
C396 C 0.50376 0.86526 0.90118 0.00000
C397 C 0.50282 0.88868 0.92171 0.00000
C398 C 0.50125 0.87993 0.95111 0.00000
C399 C 0.50141 0.84820 0.95913 0.00000
H400 H 0.50508 0.87121 0.88172 0.00000
C401 C 0.50274 0.83334 0.90942 0.00000
C402 C 0.50170 0.82426 0.93833 0.00000
H403 H 0.50322 0.91026 0.91607 0.00000
H404 H 0.50277 0.81740 0.89539 0.00000
H405 H 0.50132 0.84277 0.97861 0.00000
C406 C 0.61598 0.19942 0.46537 0.00000
C407 C 0.59647 0.16029 0.46901 0.00000
C408 C 0.55852 0.13742 0.46160 0.00000
C409 C 0.54134 0.15447 0.45015 0.00000
H410 H 0.64118 0.21454 0.47008 0.00000
C411 C 0.59831 0.21596 0.45486 0.00000
C412 C 0.56096 0.19403 0.44699 0.00000
H413 H 0.60845 0.14907 0.47639 0.00000
H414 H 0.61156 0.24243 0.45293 0.00000
H415 H 0.51644 0.13937 0.44452 0.00000
C416 C 0.41159 0.55978 0.66645 0.00000
C417 C 0.44433 0.56176 0.66173 0.00000
C418 C 0.45503 0.55995 0.63348 0.00000
C419 C 0.43283 0.55694 0.61062 0.00000
H420 H 0.40464 0.56127 0.68513 0.00000
C421 C 0.38937 0.55563 0.64368 0.00000
C422 C 0.39948 0.55427 0.61550 0.00000
H423 H 0.45931 0.56430 0.67727 0.00000
H424 H 0.36705 0.55369 0.64711 0.00000
H425 H 0.44022 0.55669 0.59181 0.00000
C426 C 0.12998 0.64037 0.26252 0.00000
C427 C 0.11375 0.60612 0.27708 0.00000
C428 C 0.13572 0.59270 0.28647 0.00000
C429 C 0.17365 0.61452 0.28145 0.00000
H430 H 0.11549 0.64940 0.25649 0.00000
C431 C 0.16733 0.66103 0.25695 0.00000
C432 C 0.18982 0.64874 0.26631 0.00000
H433 H 0.08825 0.59191 0.28067 0.00000
H434 H 0.17791 0.68378 0.24671 0.00000
H435 H 0.18851 0.60626 0.28825 0.00000
C436 C 0.63572 0.47228 0.16365 0.00000
C437 C 0.60148 0.46682 0.15833 0.00000
C438 C 0.58773 0.46086 0.12998 0.00000
C439 C 0.60851 0.45979 0.10772 0.00000
H440 H 0.64471 0.47594 0.18245 0.00000
C441 C 0.65644 0.47231 0.14131 0.00000
C442 C 0.64335 0.46598 0.11311 0.00000
H443 H 0.58750 0.46710 0.17354 0.00000
H444 H 0.67976 0.47664 0.14507 0.00000
H445 H 0.59914 0.45489 0.08897 0.00000
C446 C 0.36169 0.87390 0.50292 0.00000
C447 C 0.39970 0.89934 0.50050 0.00000
C448 C 0.42408 0.89257 0.51535 0.00000
C449 C 0.40955 0.85992 0.53185 0.00000
H450 H 0.34554 0.87823 0.49290 0.00000
C451 C 0.34775 0.84237 0.52002 0.00000
C452 C 0.37117 0.83467 0.53465 0.00000
H453 H 0.40918 0.92098 0.48901 0.00000
H454 H 0.32208 0.82571 0.52188 0.00000
H455 H 0.42555 0.85477 0.54118 0.00000
C456 C 0.63214 0.44082 0.67432 0.00000
C457 C 0.61708 0.46242 0.67058 0.00000
C458 C 0.58317 0.45127 0.68379 0.00000
C459 C 0.56563 0.41901 0.70093 0.00000
H460 H 0.65473 0.44836 0.66576 0.00000
C461 C 0.61388 0.40836 0.69061 0.00000
C462 C 0.58057 0.39692 0.70424 0.00000
H463 H 0.62939 0.48437 0.65930 0.00000
H464 H 0.62395 0.39365 0.69262 0.00000
H465 H 0.54362 0.41200 0.71033 0.00000
C466 C 0.12156 0.48110 0.89346 0.00000
C467 C 0.10877 0.49788 0.87558 0.00000
C468 C 0.13340 0.52699 0.85659 0.00000
C469 C 0.17017 0.53797 0.85567 0.00000
H470 H 0.10520 0.46162 0.90588 0.00000
C471 C 0.15825 0.49309 0.89292 0.00000
C472 C 0.18313 0.52145 0.87411 0.00000
H473 H 0.08383 0.48990 0.87612 0.00000
H474 H 0.16674 0.48204 0.90540 0.00000
H475 H 0.18643 0.55658 0.84262 0.00000
C476 C 0.59808 0.15537 0.06228 0.00000
C477 C 0.58389 0.12432 0.04392 0.00000
C478 C 0.60726 0.12253 0.02376 0.00000
C479 C 0.64455 0.15173 0.02298 0.00000
H480 H 0.58267 0.15643 0.07579 0.00000
C481 C 0.63476 0.18457 0.06064 0.00000
C482 C 0.65863 0.18334 0.04119 0.00000
H483 H 0.55883 0.10457 0.04490 0.00000
H484 H 0.64392 0.20567 0.07279 0.00000
H485 H 0.66039 0.15026 0.01016 0.00000
C486 C 0.44482 0.47103 0.03443 0.00000
C487 C 0.46070 0.47717 0.06146 0.00000
C488 C 0.47456 0.51222 0.07569 0.00000
C489 C 0.47140 0.53998 0.06257 0.00000
H490 H 0.43538 0.44771 0.02510 0.00000
C491 C 0.44294 0.49920 0.02137 0.00000
C492 C 0.45596 0.53394 0.03507 0.00000
H493 H 0.46223 0.45807 0.07026 0.00000
H494 H 0.43274 0.49501 0.00295 0.00000
H495 H 0.47968 0.56291 0.07218 0.00000
C496 C 0.89334 0.45114 0.26095 0.00000
C497 C 0.92967 0.46997 0.27071 0.00000
C498 C 0.95833 0.47772 0.25161 0.00000
C499 C 0.94978 0.46698 0.22299 0.00000
H500 H 0.87439 0.44626 0.27355 0.00000
C501 C 0.88520 0.43967 0.23280 0.00000
C502 C 0.91301 0.44739 0.21334 0.00000
H503 H 0.93516 0.47752 0.28995 0.00000
H504 H 0.86054 0.42644 0.22654 0.00000
H505 H 0.96876 0.47289 0.21006 0.00000
C506 C 0.97439 0.47695 0.95381 0.00000
C507 C 0.97958 0.47667 0.92448 0.00000
C508 C 0.95074 0.46851 0.90527 0.00000
C509 C 0.91761 0.46158 0.91608 0.00000
H510 H 0.99359 0.48264 0.96652 0.00000
C511 C 0.94107 0.46888 0.96419 0.00000
C512 C 0.91224 0.46123 0.94572 0.00000
H513 H 0.00220 0.48188 0.91742 0.00000
H514 H 0.93763 0.46853 0.98402 0.00000
H515 H 0.89871 0.45710 0.90344 0.00000
C516 C 0.52389 0.90534 0.09224 0.00000
C517 C 0.53293 0.93075 0.06993 0.00000
C518 C 0.50892 0.94247 0.06261 0.00000
C519 C 0.47671 0.92888 0.07833 0.00000
H520 H 0.53993 0.89779 0.09724 0.00000
C521 C 0.49139 0.89125 0.10700 0.00000
C522 C 0.46735 0.90272 0.10049 0.00000
H523 H 0.55495 0.94011 0.05974 0.00000
H524 H 0.48525 0.87366 0.12169 0.00000
H525 H 0.46113 0.93728 0.07406 0.00000
C526 C 0.51457 0.10377 0.59246 0.00000
C527 C 0.50830 0.07883 0.57025 0.00000
C528 C 0.53493 0.07022 0.56398 0.00000
C529 C 0.56691 0.08639 0.58061 0.00000
H530 H 0.49681 0.10924 0.59675 0.00000
C531 C 0.54685 0.12043 0.60813 0.00000
C532 C 0.57344 0.11207 0.60267 0.00000
H533 H 0.48643 0.06771 0.55944 0.00000
H534 H 0.55108 0.13769 0.62275 0.00000
H535 H 0.58424 0.08007 0.57704 0.00000
C536 C 0.56976 0.59401 0.76659 0.00000
C537 C 0.55940 0.57443 0.74067 0.00000
C538 C 0.52224 0.55539 0.73122 0.00000
C539 C 0.49656 0.55719 0.74786 0.00000
H540 H 0.59443 0.60686 0.77275 0.00000
C541 C 0.54380 0.59453 0.78321 0.00000
C542 C 0.50697 0.57641 0.77424 0.00000
H543 H 0.57705 0.57384 0.72947 0.00000
H544 H 0.55093 0.60729 0.80087 0.00000
H545 H 0.47208 0.54544 0.74138 0.00000
C546 C 0.10353 0.59478 0.43943 0.00000
C547 C 0.09034 0.57739 0.41288 0.00000
C548 C 0.10000 0.55247 0.40223 0.00000
C549 C 0.12214 0.54511 0.41884 0.00000
H550 H 0.09691 0.61106 0.44658 0.00000
C551 C 0.12632 0.58812 0.45520 0.00000
C552 C 0.13593 0.56324 0.44539 0.00000
H553 H 0.07504 0.58217 0.40205 0.00000
H554 H 0.13557 0.60047 0.47286 0.00000
H555 H 0.12788 0.52788 0.41223 0.00000
C556 C 0.60676 0.50748 0.25774 0.00000
C557 C 0.58293 0.50129 0.23525 0.00000
C558 C 0.54924 0.46554 0.23205 0.00000
C559 C 0.54005 0.43712 0.25195 0.00000
H560 H 0.62893 0.53124 0.25998 0.00000
C561 C 0.59779 0.47872 0.27671 0.00000
C562 C 0.56447 0.44326 0.27432 0.00000
H563 H 0.58919 0.52081 0.22220 0.00000
H564 H 0.61433 0.48298 0.29152 0.00000
H565 H 0.51734 0.41368 0.25037 0.00000
C566 C 0.40943 0.90937 0.37542 0.00000
C567 C 0.42920 0.92850 0.40000 0.00000
C568 C 0.46180 0.93005 0.40715 0.00000
C569 C 0.47410 0.91290 0.38905 0.00000
H570 H 0.38799 0.90859 0.37056 0.00000
C571 C 0.42133 0.89156 0.35822 0.00000
C572 C 0.45373 0.89304 0.36454 0.00000
H573 H 0.42091 0.94038 0.41183 0.00000
H574 H 0.40748 0.87821 0.34195 0.00000
H575 H 0.49620 0.91464 0.39329 0.00000
C576 C 0.55863 0.49800 0.52359 0.00000
C577 C 0.55727 0.50320 0.55285 0.00000
C578 C 0.57312 0.49027 0.57231 0.00000
C579 C 0.59060 0.47307 0.56177 0.00000
H580 H 0.54839 0.50682 0.51069 0.00000
C581 C 0.57501 0.47989 0.51355 0.00000
C582 C 0.59133 0.46726 0.53225 0.00000
H583 H 0.54586 0.51528 0.55968 0.00000
H584 H 0.57524 0.47597 0.49382 0.00000
H585 H 0.60197 0.46529 0.57450 0.00000
C586 C 0.06048 0.49898 0.69562 0.00000
C587 C 0.05006 0.49646 0.72407 0.00000
C588 C 0.07340 0.52593 0.74356 0.00000
C589 C 0.10634 0.55759 0.73376 0.00000
H590 H 0.04491 0.47961 0.68266 0.00000
C591 C 0.09368 0.52992 0.68646 0.00000
C592 C 0.11708 0.55971 0.70514 0.00000
H593 H 0.02757 0.47524 0.73035 0.00000
H594 H 0.10074 0.53106 0.66734 0.00000
H595 H 0.12149 0.57766 0.74640 0.00000
C596 C 0.64532 0.13819 0.89151 0.00000
C597 C 0.62374 0.10840 0.91021 0.00000
C598 C 0.58472 0.08804 0.90842 0.00000
C599 C 0.56838 0.09771 0.88746 0.00000
H600 H 0.67117 0.15149 0.89255 0.00000
C601 C 0.62875 0.14816 0.87149 0.00000
C602 C 0.59025 0.12823 0.86896 0.00000
H603 H 0.63505 0.10181 0.92400 0.00000
H604 H 0.64354 0.16869 0.85929 0.00000
H605 H 0.54254 0.08372 0.88569 0.00000
loop_
_geom_bond_atom_site_label_1
_geom_bond_atom_site_label_2
_geom_bond_distance
_geom_bond_site_symmetry_2
_ccdc_geom_bond_type
U0 O2 2.382 . S
U0 O5 2.382 . S
U0 O7 2.373 . S
U0 O9 2.373 . S
C1 O2 1.283 . S
C1 O3 1.221 . D
C4 O5 1.283 . S
C4 O6 1.221 . D
O7 C11 1.268 . S
O8 C11 1.227 . D
O9 C12 1.268 . S
O10 C12 1.227 . D
U13 O15 2.382 . S
U13 O18 2.382 . S
U13 O20 2.373 . S
U13 O22 2.373 1_455 S
C14 O15 1.283 1_655 S
C14 O16 1.221 . D
C17 O18 1.283 . S
C17 O19 1.221 . D
O20 C24 1.268 . S
O21 C24 1.227 . D
O22 C25 1.268 . S
O23 C25 1.227 . D
U26 O28 2.382 . S
U26 O31 2.382 1_455 S
U26 O33 2.373 1_455 S
U26 O35 2.373 . S
C27 O28 1.283 . S
C27 O29 1.221 . D
C30 O31 1.283 . S
C30 O32 1.221 . D
O33 C37 1.268 . S
O34 C37 1.227 . D
O35 C38 1.268 . S
O36 C38 1.227 . D
U39 O41 2.382 1_546 S
U39 O44 2.382 1_556 S
U39 O46 2.373 . S
U39 O48 2.373 1_545 S
C40 O41 1.283 . S
C40 O42 1.221 . D
C43 O44 1.283 . S
C43 O45 1.221 1_554 D
O46 C50 1.268 . S
O47 C50 1.227 . D
O48 C51 1.268 . S
O49 C51 1.227 . D
U52 O54 2.382 . S
U52 O57 2.382 1_545 S
U52 O59 2.373 1_545 S
U52 O61 2.373 . S
C53 O54 1.283 . S
C53 O55 1.221 . D
C56 O57 1.283 . S
C56 O58 1.221 . D
O59 C63 1.268 . S
O60 C63 1.227 . D
O61 C64 1.268 . S
O62 C64 1.227 . D
U65 O67 2.382 . S
U65 O70 2.382 . S
U65 O72 2.373 . S
U65 O74 2.373 . S
C66 O67 1.283 . S
C66 O68 1.221 . D
C69 O70 1.283 . S
C69 O71 1.221 . D
O72 C76 1.268 . S
O73 C76 1.227 . D
O74 C77 1.268 . S
O75 C77 1.227 . D
Cu78 Cu79 2.733 . S
Cu78 Cu80 2.681 . S
Cu78 Cu81 2.714 . S
Cu78 I118 2.665 . S
Cu78 I119 2.698 . S
Cu78 I121 2.782 . S
Cu78 N125 2.065 . S
Cu79 Cu80 2.745 . S
Cu79 Cu81 2.578 . S
Cu79 I118 2.712 . S
Cu79 I120 2.681 . S
Cu79 I121 2.668 . S
Cu79 N123 2.006 . S
Cu80 Cu81 2.671 . S
Cu80 I119 2.658 . S
Cu80 I120 2.668 . S
Cu80 I121 2.716 . S
Cu80 N124 2.042 . S
Cu81 I118 2.665 . S
Cu81 I119 2.707 . S
Cu81 I120 2.727 . S
Cu81 N122 2.003 . S
H82 C98 0.929 . S
H83 C99 0.930 . S
H84 C100 0.930 . S
H85 C101 0.930 . S
H86 C102 0.928 . S
H87 C103 0.930 . S
H88 C104 0.929 1_554 S
H89 C105 0.931 . S
H90 C106 0.930 . S
H91 C107 0.930 . S
H92 C108 0.930 . S
H93 C109 0.930 . S
H94 C112 0.931 . S
H95 C113 0.929 . S
H96 C114 0.930 . S
H97 C115 0.929 . S
C98 C102 1.385 . A
C98 N123 1.336 . A
C99 C101 1.398 . A
C99 C117 1.330 . A
C100 C114 1.371 1_554 A
C100 N125 1.276 . A
C101 N122 1.299 . A
C102 C110 1.369 . A
C103 C110 1.369 . A
C103 C115 1.380 . A
C104 C112 1.359 . A
C104 N125 1.329 1_556 A
C105 C113 1.382 . A
C105 N122 1.278 . A
C106 C109 1.373 . A
C106 N124 1.289 . A
C107 C108 1.420 . A
C107 N124 1.313 . A
C108 C111 1.351 . A
C109 C111 1.332 . A
C112 C116 1.361 . A
C113 C117 1.326 . A
C114 C116 1.381 . A
C115 N123 1.332 . A
Cu126 Cu127 2.733 . S
Cu126 Cu128 2.681 . S
Cu126 Cu129 2.714 . S
Cu126 I166 2.665 . S
Cu126 I167 2.698 . S
Cu126 I169 2.782 . S
Cu126 N173 2.065 . S
Cu127 Cu128 2.745 . S
Cu127 Cu129 2.578 . S
Cu127 I166 2.712 . S
Cu127 I168 2.681 . S
Cu127 I169 2.668 . S
Cu127 N171 2.006 . S
Cu128 Cu129 2.671 . S
Cu128 I167 2.658 . S
Cu128 I168 2.668 . S
Cu128 I169 2.716 . S
Cu128 N172 2.042 . S
Cu129 I166 2.665 . S
Cu129 I167 2.707 . S
Cu129 I168 2.727 . S
Cu129 N170 2.003 . S
H130 C146 0.929 . S
H131 C147 0.930 . S
H132 C148 0.930 . S
H133 C149 0.930 . S
H134 C150 0.928 . S
H135 C151 0.930 . S
H136 C152 0.929 . S
H137 C153 0.931 . S
H138 C154 0.930 . S
H139 C155 0.930 . S
H140 C156 0.930 . S
H141 C157 0.930 . S
H142 C160 0.931 . S
H143 C161 0.929 . S
H144 C162 0.930 . S
H145 C163 0.929 . S
C146 C150 1.385 . A
C146 N171 1.336 . A
C147 C149 1.398 . A
C147 C165 1.330 . A
C148 C162 1.371 . A
C148 N173 1.276 . A
C149 N170 1.299 . A
C150 C158 1.369 . A
C151 C158 1.369 . A
C151 C163 1.380 . A
C152 C160 1.359 . A
C152 N173 1.329 . A
C153 C161 1.382 . A
C153 N170 1.278 . A
C154 C157 1.373 . A
C154 N172 1.289 . A
C155 C156 1.420 . A
C155 N172 1.313 . A
C156 C159 1.351 . A
C157 C159 1.332 . A
C160 C164 1.361 . A
C161 C165 1.326 . A
C162 C164 1.381 . A
C163 N171 1.332 . A
Cu174 Cu175 2.733 . S
Cu174 Cu176 2.681 . S
Cu174 Cu177 2.714 . S
Cu174 I214 2.665 . S
Cu174 I215 2.698 . S
Cu174 I217 2.782 . S
Cu174 N221 2.065 . S
Cu175 Cu176 2.745 . S
Cu175 Cu177 2.578 . S
Cu175 I214 2.712 . S
Cu175 I216 2.681 . S
Cu175 I217 2.668 . S
Cu175 N219 2.006 . S
Cu176 Cu177 2.671 . S
Cu176 I215 2.658 . S
Cu176 I216 2.668 . S
Cu176 I217 2.716 . S
Cu176 N220 2.042 . S
Cu177 I214 2.665 . S
Cu177 I215 2.707 . S
Cu177 I216 2.727 . S
Cu177 N218 2.003 . S
H178 C194 0.929 . S
H179 C195 0.930 . S
H180 C196 0.930 . S
H181 C197 0.930 . S
H182 C198 0.928 . S
H183 C199 0.930 . S
H184 C200 0.929 . S
H185 C201 0.931 . S
H186 C202 0.930 . S
H187 C203 0.930 . S
H188 C204 0.930 . S
H189 C205 0.930 . S
H190 C208 0.931 . S
H191 C209 0.929 . S
H192 C210 0.930 1_554 S
H193 C211 0.929 . S
C194 C198 1.385 . A
C194 N219 1.336 . A
C195 C197 1.398 . A
C195 C213 1.330 . A
C196 C210 1.371 . A
C196 N221 1.276 . A
C197 N218 1.299 . A
C198 C206 1.369 . A
C199 C206 1.369 . A
C199 C211 1.380 . A
C200 C208 1.359 1_556 A
C200 N221 1.329 . A
C201 C209 1.382 . A
C201 N218 1.278 . A
C202 C205 1.373 . A
C202 N220 1.289 . A
C203 C204 1.420 . A
C203 N220 1.313 . A
C204 C207 1.351 . A
C205 C207 1.332 . A
C208 C212 1.361 . A
C209 C213 1.326 . A
C210 C212 1.381 1_556 A
C211 N219 1.332 . A
Cu222 Cu223 2.733 . S
Cu222 Cu224 2.681 . S
Cu222 Cu225 2.714 . S
Cu222 I262 2.665 . S
Cu222 I263 2.698 . S
Cu222 I265 2.782 . S
Cu222 N269 2.065 . S
Cu223 Cu224 2.745 . S
Cu223 Cu225 2.578 . S
Cu223 I262 2.712 . S
Cu223 I264 2.681 . S
Cu223 I265 2.668 . S
Cu223 N267 2.006 . S
Cu224 Cu225 2.671 . S
Cu224 I263 2.658 . S
Cu224 I264 2.668 . S
Cu224 I265 2.716 . S
Cu224 N268 2.042 . S
Cu225 I262 2.665 . S
Cu225 I263 2.707 . S
Cu225 I264 2.727 . S
Cu225 N266 2.003 . S
H226 C242 0.929 . S
H227 C243 0.930 . S
H228 C244 0.930 . S
H229 C245 0.930 . S
H230 C246 0.928 . S
H231 C247 0.930 . S
H232 C248 0.929 . S
H233 C249 0.931 . S
H234 C250 0.930 . S
H235 C251 0.930 . S
H236 C252 0.930 . S
H237 C253 0.930 . S
H238 C256 0.931 . S
H239 C257 0.929 . S
H240 C258 0.930 . S
H241 C259 0.929 . S
C242 C246 1.385 . A
C242 N267 1.336 . A
C243 C245 1.398 . A
C243 C261 1.330 . A
C244 C258 1.371 . A
C244 N269 1.276 . A
C245 N266 1.299 . A
C246 C254 1.369 . A
C247 C254 1.369 . A
C247 C259 1.380 . A
C248 C256 1.359 . A
C248 N269 1.329 . A
C249 C257 1.382 . A
C249 N266 1.278 . A
C250 C253 1.373 . A
C250 N268 1.289 . A
C251 C252 1.420 . A
C251 N268 1.313 . A
C252 C255 1.351 . A
C253 C255 1.332 . A
C256 C260 1.361 . A
C257 C261 1.326 . A
C258 C260 1.381 . A
C259 N267 1.332 . A
Cu270 Cu271 2.733 . S
Cu270 Cu272 2.681 . S
Cu270 Cu273 2.714 . S
Cu270 I310 2.665 . S
Cu270 I311 2.698 . S
Cu270 I313 2.782 . S
Cu270 N317 2.065 . S
Cu271 Cu272 2.745 . S
Cu271 Cu273 2.578 . S
Cu271 I310 2.712 . S
Cu271 I312 2.681 . S
Cu271 I313 2.668 . S
Cu271 N315 2.006 . S
Cu272 Cu273 2.671 . S
Cu272 I311 2.658 . S
Cu272 I312 2.668 . S
Cu272 I313 2.716 . S
Cu272 N316 2.042 . S
Cu273 I310 2.665 . S
Cu273 I311 2.707 . S
Cu273 I312 2.727 . S
Cu273 N314 2.003 . S
H274 C290 0.929 . S
H275 C291 0.930 . S
H276 C292 0.930 . S
H277 C293 0.930 . S
H278 C294 0.928 . S
H279 C295 0.930 . S
H280 C296 0.929 . S
H281 C297 0.931 . S
H282 C298 0.930 . S
H283 C299 0.930 . S
H284 C300 0.930 . S
H285 C301 0.930 . S
H286 C304 0.931 . S
H287 C305 0.929 . S
H288 C306 0.930 . S
H289 C307 0.929 . S
C290 C294 1.385 . A
C290 N315 1.336 . A
C291 C293 1.398 . A
C291 C309 1.330 . A
C292 C306 1.371 . A
C292 N317 1.276 . A
C293 N314 1.299 . A
C294 C302 1.369 . A
C295 C302 1.369 . A
C295 C307 1.380 . A
C296 C304 1.359 . A
C296 N317 1.329 . A
C297 C305 1.382 . A
C297 N314 1.278 . A
C298 C301 1.373 . A
C298 N316 1.289 . A
C299 C300 1.420 . A
C299 N316 1.313 . A
C300 C303 1.351 . A
C301 C303 1.332 . A
C304 C308 1.361 . A
C305 C309 1.326 . A
C306 C308 1.381 . A
C307 N315 1.332 . A
Cu318 Cu319 2.733 . S
Cu318 Cu320 2.681 . S
Cu318 Cu321 2.714 . S
Cu318 I358 2.665 . S
Cu318 I359 2.698 . S
Cu318 I361 2.782 . S
Cu318 N365 2.065 . S
Cu319 Cu320 2.745 . S
Cu319 Cu321 2.578 . S
Cu319 I358 2.712 . S
Cu319 I360 2.681 . S
Cu319 I361 2.668 . S
Cu319 N363 2.006 . S
Cu320 Cu321 2.671 . S
Cu320 I359 2.658 . S
Cu320 I360 2.668 . S
Cu320 I361 2.716 . S
Cu320 N364 2.042 . S
Cu321 I358 2.665 . S
Cu321 I359 2.707 . S
Cu321 I360 2.727 . S
Cu321 N362 2.003 . S
H322 C338 0.929 . S
H323 C339 0.930 . S
H324 C340 0.930 . S
H325 C341 0.930 . S
H326 C342 0.928 . S
H327 C343 0.930 . S
H328 C344 0.929 . S
H329 C345 0.931 . S
H330 C346 0.930 . S
H331 C347 0.930 . S
H332 C348 0.930 . S
H333 C349 0.930 . S
H334 C352 0.931 . S
H335 C353 0.929 . S
H336 C354 0.930 . S
H337 C355 0.929 . S
C338 C342 1.385 . A
C338 N363 1.336 . A
C339 C341 1.398 . A
C339 C357 1.330 . A
C340 C354 1.371 . A
C340 N365 1.276 . A
C341 N362 1.299 . A
C342 C350 1.369 . A
C343 C350 1.369 . A
C343 C355 1.380 . A
C344 C352 1.359 . A
C344 N365 1.329 . A
C345 C353 1.382 . A
C345 N362 1.278 . A
C346 C349 1.373 . A
C346 N364 1.289 . A
C347 C348 1.420 . A
C347 N364 1.313 . A
C348 C351 1.351 . A
C349 C351 1.332 . A
C352 C356 1.361 . A
C353 C357 1.326 . A
C354 C356 1.381 . A
C355 N363 1.332 . A
C366 C367 1.379 . A
C366 H370 0.929 . S
C366 C371 1.365 . A
C367 C368 1.403 . A
C367 H373 0.930 . S
C368 C369 1.381 . A
C369 C372 1.391 . A
C369 H375 0.930 . S
C371 C372 1.387 . A
C371 H374 0.930 . S
C376 C377 1.379 . A
C376 H380 0.929 . S
C376 C381 1.365 . A
C377 C378 1.403 . A
C377 H383 0.930 . S
C378 C379 1.381 . A
C379 C382 1.391 . A
C379 H385 0.930 . S
C381 C382 1.387 . A
C381 H384 0.930 . S
C386 C387 1.379 . A
C386 H390 0.929 . S
C386 C391 1.365 . A
C387 C388 1.403 . A
C387 H393 0.930 . S
C388 C389 1.381 . A
C389 C392 1.391 . A
C389 H395 0.930 . S
C391 C392 1.387 . A
C391 H394 0.930 . S
C396 C397 1.379 . A
C396 H400 0.929 . S
C396 C401 1.365 . A
C397 C398 1.403 . A
C397 H403 0.930 . S
C398 C399 1.381 . A
C399 C402 1.391 . A
C399 H405 0.930 . S
C401 C402 1.387 . A
C401 H404 0.930 . S
C406 C407 1.379 . A
C406 H410 0.929 . S
C406 C411 1.365 . A
C407 C408 1.403 . A
C407 H413 0.930 . S
C408 C409 1.381 . A
C409 C412 1.391 . A
C409 H415 0.930 . S
C411 C412 1.387 . A
C411 H414 0.930 . S
C416 C417 1.379 . A
C416 H420 0.929 . S
C416 C421 1.365 . A
C417 C418 1.403 . A
C417 H423 0.930 . S
C418 C419 1.381 . A
C419 C422 1.391 . A
C419 H425 0.930 . S
C421 C422 1.387 . A
C421 H424 0.930 . S
C426 C427 1.379 . A
C426 H430 0.929 . S
C426 C431 1.365 . A
C427 C428 1.403 . A
C427 H433 0.930 . S
C428 C429 1.381 . A
C429 C432 1.391 . A
C429 H435 0.930 . S
C431 C432 1.387 . A
C431 H434 0.930 . S
C436 C437 1.379 . A
C436 H440 0.929 . S
C436 C441 1.365 . A
C437 C438 1.403 . A
C437 H443 0.930 . S
C438 C439 1.381 . A
C439 C442 1.391 . A
C439 H445 0.930 . S
C441 C442 1.387 . A
C441 H444 0.930 . S
C446 C447 1.379 . A
C446 H450 0.929 . S
C446 C451 1.365 . A
C447 C448 1.403 . A
C447 H453 0.930 . S
C448 C449 1.381 . A
C449 C452 1.391 . A
C449 H455 0.930 . S
C451 C452 1.387 . A
C451 H454 0.930 . S
C456 C457 1.379 . A
C456 H460 0.929 . S
C456 C461 1.365 . A
C457 C458 1.403 . A
C457 H463 0.930 . S
C458 C459 1.381 . A
C459 C462 1.391 . A
C459 H465 0.930 . S
C461 C462 1.387 . A
C461 H464 0.930 . S
C466 C467 1.379 . A
C466 H470 0.929 . S
C466 C471 1.365 . A
C467 C468 1.403 . A
C467 H473 0.930 . S
C468 C469 1.381 . A
C469 C472 1.391 . A
C469 H475 0.930 . S
C471 C472 1.387 . A
C471 H474 0.930 . S
C476 C477 1.379 . A
C476 H480 0.929 . S
C476 C481 1.365 . A
C477 C478 1.403 . A
C477 H483 0.930 . S
C478 C479 1.381 . A
C479 C482 1.391 . A
C479 H485 0.930 . S
C481 C482 1.387 . A
C481 H484 0.930 . S
C486 C487 1.379 . A
C486 H490 0.929 . S
C486 C491 1.365 . A
C487 C488 1.403 . A
C487 H493 0.930 . S
C488 C489 1.381 . A
C489 C492 1.391 . A
C489 H495 0.930 . S
C491 C492 1.387 . A
C491 H494 0.930 . S
C496 C497 1.379 . A
C496 H500 0.929 . S
C496 C501 1.365 . A
C497 C498 1.403 . A
C497 H503 0.930 . S
C498 C499 1.381 . A
C499 C502 1.391 . A
C499 H505 0.930 . S
C501 C502 1.387 . A
C501 H504 0.930 . S
C506 C507 1.379 . A
C506 H510 0.929 . S
C506 C511 1.365 . A
C507 C508 1.403 . A
C507 H513 0.930 1_655 S
C508 C509 1.381 . A
C509 C512 1.391 . A
C509 H515 0.930 . S
C511 C512 1.387 . A
C511 H514 0.930 . S
C516 C517 1.379 . A
C516 H520 0.929 . S
C516 C521 1.365 . A
C517 C518 1.403 . A
C517 H523 0.930 . S
C518 C519 1.381 . A
C519 C522 1.391 . A
C519 H525 0.930 . S
C521 C522 1.387 . A
C521 H524 0.930 . S
C526 C527 1.379 . A
C526 H530 0.929 . S
C526 C531 1.365 . A
C527 C528 1.403 . A
C527 H533 0.930 . S
C528 C529 1.381 . A
C529 C532 1.391 . A
C529 H535 0.930 . S
C531 C532 1.387 . A
C531 H534 0.930 . S
C536 C537 1.379 . A
C536 H540 0.929 . S
C536 C541 1.365 . A
C537 C538 1.403 . A
C537 H543 0.930 . S
C538 C539 1.381 . A
C539 C542 1.391 . A
C539 H545 0.930 . S
C541 C542 1.387 . A
C541 H544 0.930 . S
C546 C547 1.379 . A
C546 H550 0.929 . S
C546 C551 1.365 . A
C547 C548 1.403 . A
C547 H553 0.930 . S
C548 C549 1.381 . A
C549 C552 1.391 . A
C549 H555 0.930 . S
C551 C552 1.387 . A
C551 H554 0.930 . S
C556 C557 1.379 . A
C556 H560 0.929 . S
C556 C561 1.365 . A
C557 C558 1.403 . A
C557 H563 0.930 . S
C558 C559 1.381 . A
C559 C562 1.391 . A
C559 H565 0.930 . S
C561 C562 1.387 . A
C561 H564 0.930 . S
C566 C567 1.379 . A
C566 H570 0.929 . S
C566 C571 1.365 . A
C567 C568 1.403 . A
C567 H573 0.930 . S
C568 C569 1.381 . A
C569 C572 1.391 . A
C569 H575 0.930 . S
C571 C572 1.387 . A
C571 H574 0.930 . S
C576 C577 1.379 . A
C576 H580 0.929 . S
C576 C581 1.365 . A
C577 C578 1.403 . A
C577 H583 0.930 . S
C578 C579 1.381 . A
C579 C582 1.391 . A
C579 H585 0.930 . S
C581 C582 1.387 . A
C581 H584 0.930 . S
C586 C587 1.379 . A
C586 H590 0.929 . S
C586 C591 1.365 . A
C587 C588 1.403 . A
C587 H593 0.930 . S
C588 C589 1.381 . A
C589 C592 1.391 . A
C589 H595 0.930 . S
C591 C592 1.387 . A
C591 H594 0.930 . S
C596 C597 1.379 . A
C596 H600 0.929 . S
C596 C601 1.365 . A
C597 C598 1.403 . A
C597 H603 0.930 . S
C598 C599 1.381 . A
C599 C602 1.391 . A
C599 H605 0.930 . S
C601 C602 1.387 . A
C601 H604 0.930 . S
C372 C165 1.365 . S
C368 C12 1.395 . S
C382 C357 1.436 . S
C378 C25 1.435 . S
C392 C303 1.609 . S
C388 C30 1.572 . S
C402 C207 1.582 . S
C398 C51 1.672 . S
C412 C351 1.334 . S
C408 C64 1.330 . S
C418 C77 1.520 . S
C422 C261 1.521 . S
C432 C159 1.613 . S
C428 C17 1.579 . S
C438 C4 1.622 . S
C442 C117 1.605 . S
C452 C255 1.543 . S
C448 C56 1.514 . S
C462 C309 1.423 . S
C458 C69 1.523 . S
C472 C213 1.649 . S
C468 C38 1.661 . S
C482 C111 1.446 . S
C478 C43 1.526 . S
C492 C212 1.427 . S
C488 C1 1.488 . S
C502 C110 1.461 . S
C498 C14 1.232 . S
C512 C116 1.426 . S
C508 C37 1.373 . S
C522 C158 1.310 . S
C518 C40 1.351 . S
C532 C302 1.333 . S
C528 C53 1.320 . S
C538 C66 1.443 . S
C542 C206 1.454 . S
C552 C260 1.425 . S
C548 C24 1.172 . S
C562 C350 1.257 . S
C558 C11 0.972 . S
C568 C63 1.147 . S
C572 C164 1.437 . S
C578 C76 1.290 . S
C582 C356 1.370 . S
C588 C27 1.445 . S
C592 C254 1.451 . S
C598 C50 1.100 . S
C602 C308 1.452 . S
