# Generated by pormake.
# Topology nom, (4,4)-cn, num edge types: 1
# Building blocks:
#     Node 0, Type 0, BuildingBlock: N447, # of connection points: 6
#     Node 1, Type 0, BuildingBlock: N447, # of connection points: 6
#     Node 2, Type 0, BuildingBlock: N447, # of connection points: 6
#     Node 3, Type 0, BuildingBlock: N447, # of connection points: 6
#     Node 4, Type 0, BuildingBlock: N447, # of connection points: 6
#     Node 5, Type 0, BuildingBlock: N447, # of connection points: 6
#     Node 6, Type 1, BuildingBlock: N693, # of connection points: 4
#     Node 7, Type 1, BuildingBlock: N693, # of connection points: 4
#     Node 8, Type 1, BuildingBlock: N693, # of connection points: 4
#     Node 9, Type 1, BuildingBlock: N693, # of connection points: 4
#     Node 10, Type 1, BuildingBlock: N693, # of connection points: 4
#     Node 11, Type 1, BuildingBlock: N693, # of connection points: 4
#     Edge 12, Type (0, 1), BuildingBlock: E51, # of connection points: 2
#     Edge 13, Type (0, 1), BuildingBlock: E51, # of connection points: 2
#     Edge 14, Type (0, 1), BuildingBlock: E51, # of connection points: 2
#     Edge 15, Type (0, 1), BuildingBlock: E51, # of connection points: 2
#     Edge 16, Type (0, 1), BuildingBlock: E51, # of connection points: 2
#     Edge 17, Type (0, 1), BuildingBlock: E51, # of connection points: 2
#     Edge 18, Type (0, 1), BuildingBlock: E51, # of connection points: 2
#     Edge 19, Type (0, 1), BuildingBlock: E51, # of connection points: 2
#     Edge 20, Type (0, 1), BuildingBlock: E51, # of connection points: 2
#     Edge 21, Type (0, 1), BuildingBlock: E51, # of connection points: 2
#     Edge 22, Type (0, 1), BuildingBlock: E51, # of connection points: 2
#     Edge 23, Type (0, 1), BuildingBlock: E51, # of connection points: 2
#     Edge 24, Type (0, 1), BuildingBlock: E51, # of connection points: 2
#     Edge 25, Type (0, 1), BuildingBlock: E51, # of connection points: 2
#     Edge 26, Type (0, 1), BuildingBlock: E51, # of connection points: 2
#     Edge 27, Type (0, 1), BuildingBlock: E51, # of connection points: 2
#     Edge 28, Type (0, 1), BuildingBlock: E51, # of connection points: 2
#     Edge 29, Type (0, 1), BuildingBlock: E51, # of connection points: 2
#     Edge 30, Type (0, 1), BuildingBlock: E51, # of connection points: 2
#     Edge 31, Type (0, 1), BuildingBlock: E51, # of connection points: 2
#     Edge 32, Type (0, 1), BuildingBlock: E51, # of connection points: 2
#     Edge 33, Type (0, 1), BuildingBlock: E51, # of connection points: 2
#     Edge 34, Type (0, 1), BuildingBlock: E51, # of connection points: 2
#     Edge 35, Type (0, 1), BuildingBlock: E51, # of connection points: 2
# Relax obj value: 0.051
# Max RMSD: 0.156
# Mean RMSD: 0.141
data_nom+N447+N693+E51
_symmetry_space_group_name_H-M    P1
_symmetry_Int_Tables_number       1
_symmetry_cell_setting            triclinic
loop_
_symmetry_equiv_pos_as_xyz
'x, y, z'
_cell_length_a     27.828
_cell_length_b     27.839
_cell_length_c     30.637
_cell_angle_alpha  90.373
_cell_angle_beta   90.369
_cell_angle_gamma  121.050
loop_
_atom_site_label
_atom_site_type_symbol
_atom_site_fract_x
_atom_site_fract_y
_atom_site_fract_z
_atom_type_partial_charge
C0 C 0.37527 0.34482 0.13410 0.00000
C1 C 0.42648 0.39302 0.14430 0.00000
C2 C 0.44653 0.50436 0.09094 0.00000
C3 C 0.43842 0.53379 0.05706 0.00000
C4 C 0.48302 0.40426 0.13101 0.00000
C5 C 0.49358 0.36935 0.10706 0.00000
C6 C 0.57938 0.46806 0.13998 0.00000
C7 C 0.59309 0.43304 0.11722 0.00000
C8 C 0.47806 0.59087 0.05364 0.00000
C9 C 0.54962 0.38311 0.09990 0.00000
C10 C 0.57911 0.60712 0.14397 0.00000
C11 C 0.52403 0.61632 0.08169 0.00000
C12 C 0.53099 0.58515 0.11370 0.00000
C13 C 0.45344 0.57692 0.18770 0.00000
C14 C 0.44293 0.61253 0.21190 0.00000
C15 C 0.45384 0.61826 0.25690 0.00000
C16 C 0.47491 0.58676 0.27549 0.00000
C17 C 0.48441 0.55092 0.24961 0.00000
C18 C 0.50166 0.51253 0.26631 0.00000
N19 N 0.42841 0.43400 0.16976 0.00000
C20 C 0.50861 0.50417 0.31050 0.00000
C21 C 0.52133 0.42816 0.29061 0.00000
C22 C 0.51710 0.43933 0.24657 0.00000
C23 C 0.51865 0.46214 0.32261 0.00000
N24 N 0.52596 0.45472 0.14684 0.00000
Co25 Co 0.50090 0.50121 0.17508 0.00000
N26 N 0.47448 0.54646 0.20523 0.00000
N27 N 0.50901 0.48148 0.23471 0.00000
H28 H 0.38382 0.45616 0.20511 0.00000
H29 H 0.29128 0.30851 0.14354 0.00000
H30 H 0.37373 0.31677 0.11646 0.00000
H31 H 0.46389 0.33637 0.09534 0.00000
H32 H 0.55703 0.35917 0.08391 0.00000
H33 H 0.60837 0.50215 0.15079 0.00000
N34 N 0.57525 0.56984 0.17495 0.00000
N35 N 0.49067 0.52888 0.11865 0.00000
H36 H 0.61694 0.56083 0.22441 0.00000
H37 H 0.70260 0.71155 0.16841 0.00000
H38 H 0.62668 0.68563 0.12145 0.00000
H39 H 0.55031 0.65433 0.07904 0.00000
H40 H 0.47355 0.61202 0.03238 0.00000
H41 H 0.42026 0.46637 0.09424 0.00000
C42 C 0.61976 0.58574 0.20302 0.00000
H43 H 0.44585 0.57353 0.15789 0.00000
H44 H 0.44739 0.64211 0.27385 0.00000
H45 H 0.48250 0.58965 0.30526 0.00000
H46 H 0.50648 0.52692 0.33181 0.00000
H47 H 0.52359 0.45684 0.35188 0.00000
H48 H 0.51979 0.41718 0.22501 0.00000
C49 C 0.66903 0.63792 0.20061 0.00000
C50 C 0.67088 0.67579 0.17000 0.00000
C51 C 0.62550 0.66030 0.14166 0.00000
C52 C 0.38132 0.42795 0.18704 0.00000
C53 C 0.32870 0.38042 0.17858 0.00000
C54 C 0.32586 0.33959 0.15099 0.00000
C55 C 0.03079 0.36902 0.30704 0.00000
C56 C 0.03543 0.42041 0.31613 0.00000
C57 C 0.94149 0.43723 0.26335 0.00000
C58 C 0.90191 0.42736 0.23006 0.00000
C59 C 0.08150 0.47645 0.30117 0.00000
C60 C 0.12622 0.48631 0.27651 0.00000
C61 C 0.11674 0.57295 0.30776 0.00000
C62 C 0.16486 0.58601 0.28419 0.00000
C63 C 0.88508 0.46648 0.22599 0.00000
C64 C 0.16956 0.54209 0.26772 0.00000
C65 C 0.97694 0.57164 0.31325 0.00000
C66 C 0.90808 0.51360 0.25285 0.00000
C67 C 0.94813 0.52224 0.28428 0.00000
C68 C 0.88048 0.44774 0.36064 0.00000
C69 C 0.83511 0.43794 0.38555 0.00000
C70 C 0.84279 0.45079 0.43025 0.00000
C71 C 0.89699 0.47302 0.44783 0.00000
C72 C 0.94146 0.48173 0.42126 0.00000
C73 C 0.99855 0.50009 0.43699 0.00000
N74 N 0.99750 0.42310 0.34196 0.00000
C75 C 0.01628 0.50906 0.48086 0.00000
C76 C 0.10472 0.52162 0.45976 0.00000
C77 C 0.08697 0.51536 0.41598 0.00000
C78 C 0.06940 0.52002 0.49220 0.00000
N79 N 0.07566 0.51977 0.31617 0.00000
Co80 Co 0.00463 0.49546 0.34570 0.00000
N81 N 0.93355 0.46987 0.37717 0.00000
N82 N 0.03572 0.50636 0.40484 0.00000
H83 H 0.93122 0.37971 0.37896 0.00000
H84 H 0.98155 0.28549 0.31875 0.00000
H85 H 0.05652 0.36695 0.28915 0.00000
H86 H 0.12832 0.45631 0.26538 0.00000
H87 H 0.20043 0.54904 0.25124 0.00000
H88 H 0.11277 0.60220 0.31801 0.00000
N89 N 0.01197 0.56944 0.34395 0.00000
N90 N 0.96353 0.48250 0.28991 0.00000
H91 H 0.06626 0.61349 0.39197 0.00000
H92 H 0.99990 0.69567 0.33489 0.00000
H93 H 0.94576 0.61769 0.29008 0.00000
H94 H 0.89673 0.53951 0.24977 0.00000
H95 H 0.85815 0.46084 0.20511 0.00000
H96 H 0.95286 0.41135 0.26707 0.00000
C97 C 0.04306 0.61517 0.37076 0.00000
H98 H 0.87462 0.43886 0.33104 0.00000
H99 H 0.81304 0.44485 0.44765 0.00000
H100 H 0.90333 0.48189 0.47738 0.00000
H101 H 0.99229 0.50765 0.50248 0.00000
H102 H 0.08125 0.52630 0.52124 0.00000
H103 H 0.11092 0.51732 0.39411 0.00000
C104 C 0.04109 0.66404 0.36735 0.00000
C105 C 0.00342 0.66422 0.33710 0.00000
C106 C 0.97099 0.61760 0.31005 0.00000
C107 C 0.95611 0.37667 0.36067 0.00000
C108 C 0.94943 0.32392 0.35337 0.00000
C109 C 0.98618 0.32024 0.32543 0.00000
C110 C 0.98929 0.65284 0.81431 0.00000
C111 C 0.98359 0.60087 0.82217 0.00000
C112 C 0.07476 0.58172 0.76828 0.00000
C113 C 0.11337 0.59088 0.73493 0.00000
C114 C 0.93640 0.54536 0.80620 0.00000
C115 C 0.89151 0.53662 0.78164 0.00000
C116 C 0.89930 0.44848 0.81070 0.00000
C117 C 0.85100 0.43658 0.78719 0.00000
C118 C 0.12890 0.55085 0.72979 0.00000
C119 C 0.84715 0.48126 0.77182 0.00000
C120 C 0.03738 0.44626 0.81516 0.00000
C121 C 0.10556 0.50359 0.75566 0.00000
C122 C 0.06647 0.49570 0.78719 0.00000
C123 C 0.13669 0.56908 0.86484 0.00000
C124 C 0.18222 0.57774 0.88964 0.00000
C125 C 0.17523 0.56470 0.93407 0.00000
C126 C 0.12155 0.54348 0.95152 0.00000
C127 C 0.07690 0.53590 0.92508 0.00000
C128 C 0.02042 0.51867 0.94080 0.00000
N129 N 0.02148 0.59707 0.84765 0.00000
C130 C 0.00361 0.50982 0.98457 0.00000
C131 C 0.91559 0.49944 0.96384 0.00000
C132 C 0.93236 0.50554 0.92009 0.00000
C133 C 0.95114 0.50001 0.99605 0.00000
N134 N 0.94136 0.50126 0.82010 0.00000
Co135 Co 0.01267 0.52395 0.84968 0.00000
N136 N 0.08410 0.54792 0.88123 0.00000
N137 N 0.98293 0.51342 0.90878 0.00000
H138 H 0.08874 0.63916 0.88520 0.00000
H139 H 0.04025 0.73614 0.82768 0.00000
H140 H 0.96359 0.65568 0.79667 0.00000
H141 H 0.88998 0.56711 0.77127 0.00000
H142 H 0.81618 0.47508 0.75541 0.00000
H143 H 0.90268 0.41872 0.82020 0.00000
N144 N 0.00350 0.44922 0.84617 0.00000
N145 N 0.05241 0.53631 0.79390 0.00000
H146 H 0.94980 0.40575 0.89353 0.00000
H147 H 0.01195 0.32113 0.83394 0.00000
H148 H 0.06650 0.39895 0.79063 0.00000
H149 H 0.11603 0.47708 0.75187 0.00000
H150 H 0.15519 0.55598 0.70884 0.00000
H151 H 0.06428 0.60820 0.77272 0.00000
C152 C 0.97221 0.40357 0.87210 0.00000
H153 H 0.14209 0.57806 0.83541 0.00000
H154 H 0.20509 0.56988 0.95140 0.00000
H155 H 0.11567 0.53451 0.98090 0.00000
H156 H 0.02776 0.51054 0.00604 0.00000
H157 H 0.93989 0.49381 0.02503 0.00000
H158 H 0.90823 0.50427 0.89835 0.00000
C159 C 0.97284 0.35404 0.86748 0.00000
C160 C 0.00938 0.35305 0.83695 0.00000
C161 C 0.04201 0.39957 0.81079 0.00000
C162 C 0.06388 0.64296 0.86717 0.00000
C163 C 0.07166 0.69624 0.86112 0.00000
C164 C 0.03493 0.70104 0.83355 0.00000
C165 C 0.36439 0.02815 0.01916 0.00000
C166 C 0.41642 0.03390 0.01137 0.00000
C167 C 0.43558 0.94281 0.06534 0.00000
C168 C 0.42639 0.90421 0.09869 0.00000
C169 C 0.47191 0.08109 0.02739 0.00000
C170 C 0.48057 0.12594 0.05193 0.00000
C171 C 0.56885 0.11825 0.02300 0.00000
C172 C 0.58067 0.16652 0.04651 0.00000
C173 C 0.46645 0.88874 0.10390 0.00000
C174 C 0.53592 0.17032 0.06181 0.00000
C175 C 0.57122 0.98030 0.01862 0.00000
C176 C 0.51378 0.91211 0.07808 0.00000
C177 C 0.52170 0.95118 0.04654 0.00000
C178 C 0.44847 0.88097 0.96883 0.00000
C179 C 0.43989 0.83548 0.94404 0.00000
C180 C 0.45302 0.84248 0.89962 0.00000
C181 C 0.47424 0.89614 0.88218 0.00000
C182 C 0.48174 0.94075 0.90860 0.00000
C183 C 0.49896 0.99720 0.89287 0.00000
N184 N 0.42031 0.99605 0.98591 0.00000
C185 C 0.50788 0.01402 0.84911 0.00000
C186 C 0.51815 0.10196 0.86981 0.00000
C187 C 0.51198 0.08519 0.91356 0.00000
C188 C 0.51767 0.06645 0.83762 0.00000
N189 N 0.51608 0.07618 0.01355 0.00000
Co190 Co 0.49349 0.00492 0.98398 0.00000
N191 N 0.46963 0.93353 0.95244 0.00000
N192 N 0.50412 0.03466 0.92488 0.00000
H193 H 0.37832 0.92881 0.94834 0.00000
H194 H 0.28110 0.97716 0.00570 0.00000
H195 H 0.36150 0.05382 0.03678 0.00000
H196 H 0.45003 0.12744 0.06227 0.00000
H197 H 0.54204 0.20126 0.07821 0.00000
H198 H 0.59866 0.11491 0.01354 0.00000
N199 N 0.56827 0.01416 0.98759 0.00000
N200 N 0.48106 0.96519 0.03977 0.00000
H201 H 0.61182 0.06786 0.94027 0.00000
H202 H 0.69647 0.00583 0.00010 0.00000
H203 H 0.61855 0.95125 0.04323 0.00000
H204 H 0.54032 0.90167 0.08192 0.00000
H205 H 0.46130 0.86246 0.12485 0.00000
H206 H 0.40907 0.95325 0.06085 0.00000
C207 C 0.61398 0.04546 0.96170 0.00000
H208 H 0.43943 0.87556 0.99824 0.00000
H209 H 0.44790 0.81265 0.88231 0.00000
H210 H 0.48327 0.90204 0.85280 0.00000
H211 H 0.50722 0.98990 0.82765 0.00000
H212 H 0.52392 0.07771 0.80864 0.00000
H213 H 0.51318 0.10929 0.93528 0.00000
C214 C 0.66355 0.04489 0.96639 0.00000
C215 C 0.66452 0.00837 0.99695 0.00000
C216 C 0.61794 0.97572 0.02306 0.00000
C217 C 0.37446 0.95365 0.96635 0.00000
C218 C 0.32112 0.94581 0.97234 0.00000
C219 C 0.31624 0.98251 0.99990 0.00000
C220 C 0.64870 0.98660 0.52640 0.00000
C221 C 0.59725 0.98191 0.51738 0.00000
C222 C 0.58041 0.07576 0.57025 0.00000
C223 C 0.59032 0.11532 0.60355 0.00000
C224 C 0.54124 0.93583 0.53240 0.00000
C225 C 0.53147 0.89115 0.55704 0.00000
C226 C 0.44467 0.90052 0.52593 0.00000
C227 C 0.43170 0.85243 0.54949 0.00000
C228 C 0.55115 0.13209 0.60768 0.00000
C229 C 0.47569 0.84779 0.56589 0.00000
C230 C 0.44582 0.04019 0.52052 0.00000
C231 C 0.50397 0.10906 0.58089 0.00000
C232 C 0.49530 0.06903 0.54944 0.00000
C233 C 0.56965 0.13668 0.47301 0.00000
C234 C 0.57936 0.18200 0.44811 0.00000
C235 C 0.56641 0.17431 0.40343 0.00000
C236 C 0.54419 0.12013 0.38585 0.00000
C237 C 0.53557 0.07570 0.41240 0.00000
C238 C 0.51722 0.01863 0.39666 0.00000
N239 N 0.59447 0.01980 0.49157 0.00000
C240 C 0.50818 0.00010 0.35280 0.00000
C241 C 0.49574 0.91254 0.37386 0.00000
C242 C 0.50207 0.93029 0.41764 0.00000
C243 C 0.49724 0.94781 0.34144 0.00000
N244 N 0.49784 0.94162 0.51746 0.00000
Co245 Co 0.52204 0.01259 0.48794 0.00000
N246 N 0.54751 0.08363 0.45648 0.00000
N247 N 0.51105 0.98150 0.42880 0.00000
H248 H 0.63775 0.08605 0.45455 0.00000
H249 H 0.73223 0.03588 0.51458 0.00000
H250 H 0.65083 0.96090 0.54426 0.00000
H251 H 0.56152 0.88909 0.56812 0.00000
H252 H 0.46881 0.81695 0.58236 0.00000
H253 H 0.41538 0.90445 0.51573 0.00000
N254 N 0.44801 0.00518 0.48981 0.00000
N255 N 0.53508 0.05369 0.54374 0.00000
H256 H 0.40388 0.95088 0.44181 0.00000
H257 H 0.32167 0.01705 0.49907 0.00000
H258 H 0.39975 0.07130 0.54379 0.00000
H259 H 0.47802 0.12037 0.58401 0.00000
H260 H 0.55681 0.15901 0.62858 0.00000
H261 H 0.60633 0.06443 0.56648 0.00000
C262 C 0.40222 0.97406 0.46304 0.00000
H263 H 0.57858 0.14254 0.50260 0.00000
H264 H 0.57229 0.20403 0.38603 0.00000
H265 H 0.53525 0.11377 0.35631 0.00000
H266 H 0.50952 0.02487 0.33119 0.00000
H267 H 0.49091 0.93596 0.31240 0.00000
H268 H 0.50018 0.90637 0.43950 0.00000
C269 C 0.35331 0.97598 0.46653 0.00000
C270 C 0.35314 0.01363 0.49680 0.00000
C271 C 0.39982 0.04608 0.52380 0.00000
C272 C 0.64086 0.06119 0.47283 0.00000
C273 C 0.69366 0.06792 0.48004 0.00000
C274 C 0.69745 0.03122 0.50795 0.00000
C275 C 0.67317 0.64150 0.69842 0.00000
C276 C 0.62493 0.59029 0.68830 0.00000
C277 C 0.51366 0.57039 0.74177 0.00000
C278 C 0.48429 0.57858 0.77567 0.00000
C279 C 0.61369 0.53380 0.70164 0.00000
C280 C 0.64866 0.52328 0.72558 0.00000
C281 C 0.54984 0.43746 0.69280 0.00000
C282 C 0.58491 0.42380 0.71555 0.00000
C283 C 0.42719 0.53897 0.77917 0.00000
C284 C 0.63490 0.46727 0.73279 0.00000
C285 C 0.41073 0.43776 0.68893 0.00000
C286 C 0.40167 0.49296 0.75117 0.00000
C287 C 0.43279 0.48593 0.71915 0.00000
C288 C 0.44089 0.56331 0.64508 0.00000
C289 C 0.40523 0.57378 0.62089 0.00000
C290 C 0.39941 0.56278 0.57591 0.00000
C291 C 0.43087 0.54166 0.55731 0.00000
C292 C 0.46677 0.53221 0.58317 0.00000
C293 C 0.50512 0.51492 0.56645 0.00000
N294 N 0.58389 0.58833 0.66287 0.00000
C295 C 0.51340 0.50788 0.52226 0.00000
C296 C 0.58946 0.49518 0.54209 0.00000
C297 C 0.57838 0.49950 0.58614 0.00000
C298 C 0.55541 0.49781 0.51011 0.00000
N299 N 0.56319 0.49086 0.68589 0.00000
Co300 Co 0.51663 0.51586 0.65767 0.00000
N301 N 0.47132 0.54223 0.62753 0.00000
N302 N 0.53624 0.50763 0.59802 0.00000
H303 H 0.56166 0.63284 0.62750 0.00000
H304 H 0.70950 0.72544 0.68889 0.00000
H305 H 0.70127 0.64307 0.71604 0.00000
H306 H 0.68168 0.55298 0.73724 0.00000
H307 H 0.65887 0.45989 0.74877 0.00000
H308 H 0.51571 0.40848 0.68205 0.00000
N309 N 0.44797 0.44155 0.65792 0.00000
N310 N 0.48907 0.52622 0.71412 0.00000
H311 H 0.45687 0.39977 0.60848 0.00000
H312 H 0.30620 0.31429 0.66467 0.00000
H313 H 0.33224 0.39028 0.71155 0.00000
H314 H 0.36365 0.46671 0.75388 0.00000
H315 H 0.40609 0.54354 0.80044 0.00000
H316 H 0.55166 0.59664 0.73842 0.00000
C317 C 0.43199 0.39701 0.62990 0.00000
H318 H 0.44434 0.57095 0.67488 0.00000
H319 H 0.37551 0.56920 0.55898 0.00000
H320 H 0.42791 0.53402 0.52754 0.00000
H321 H 0.49060 0.50997 0.50096 0.00000
H322 H 0.56065 0.49280 0.48084 0.00000
H323 H 0.60058 0.49685 0.60768 0.00000
C324 C 0.37980 0.34776 0.63239 0.00000
C325 C 0.34198 0.34599 0.66303 0.00000
C326 C 0.35753 0.39141 0.69132 0.00000
C327 C 0.58992 0.63536 0.64555 0.00000
C328 C 0.63749 0.68798 0.65393 0.00000
C329 C 0.67839 0.69086 0.68149 0.00000
H330 H 0.77954 0.45773 0.14395 0.00000
H331 H 0.73059 0.31231 0.14316 0.00000
H332 H 0.85398 0.40628 0.08613 0.00000
H333 H 0.85481 0.46119 0.09750 0.00000
H334 H 0.77737 0.31446 0.11429 0.00000
H335 H 0.73193 0.40067 0.16145 0.00000
H336 H 0.78372 0.48088 0.06409 0.00000
H337 H 0.73702 0.43576 0.03128 0.00000
H338 H 0.65717 0.32919 0.11061 0.00000
H339 H 0.65955 0.34289 0.05976 0.00000
H340 H 0.78151 0.33491 0.03388 0.00000
H341 H 0.73567 0.34639 0.01278 0.00000
C342 C 0.71960 0.41175 0.09663 0.00000
C343 C 0.75615 0.41868 0.13738 0.00000
C344 C 0.71822 0.32070 0.07778 0.00000
C345 C 0.75482 0.33065 0.11916 0.00000
C346 C 0.79716 0.41531 0.04877 0.00000
C347 C 0.83113 0.42212 0.09111 0.00000
C348 C 0.79321 0.39325 0.13042 0.00000
C349 C 0.75956 0.44025 0.05777 0.00000
C350 C 0.68278 0.34822 0.08599 0.00000
C351 C 0.75822 0.35169 0.03943 0.00000
H352 H 0.45282 0.85955 0.23127 0.00000
H353 H 0.32721 0.78722 0.29156 0.00000
H354 H 0.42685 0.74431 0.29679 0.00000
H355 H 0.47073 0.78887 0.26552 0.00000
H356 H 0.33834 0.74329 0.31285 0.00000
H357 H 0.39781 0.85892 0.24125 0.00000
H358 H 0.45104 0.78366 0.18462 0.00000
H359 H 0.39233 0.73415 0.16568 0.00000
H360 H 0.30482 0.78198 0.21115 0.00000
H361 H 0.30281 0.73312 0.18192 0.00000
H362 H 0.33441 0.66522 0.26774 0.00000
H363 H 0.32092 0.66163 0.21657 0.00000
C364 C 0.38497 0.79726 0.19673 0.00000
C365 C 0.41375 0.83601 0.23704 0.00000
C366 C 0.31222 0.72338 0.24858 0.00000
C367 C 0.34342 0.76459 0.28716 0.00000
C368 C 0.40342 0.72442 0.23203 0.00000
C369 C 0.43159 0.76560 0.27116 0.00000
C370 C 0.40655 0.80287 0.27891 0.00000
C371 C 0.41059 0.75967 0.19097 0.00000
C372 C 0.32187 0.75866 0.20706 0.00000
C373 C 0.33982 0.68781 0.24140 0.00000
H374 H 0.47158 0.67862 0.96766 0.00000
H375 H 0.32625 0.57873 0.97488 0.00000
H376 H 0.41384 0.54794 0.91222 0.00000
H377 H 0.46993 0.60400 0.92065 0.00000
H378 H 0.32523 0.53235 0.94567 0.00000
H379 H 0.41650 0.66894 0.98844 0.00000
H380 H 0.48733 0.69382 0.88669 0.00000
H381 H 0.43956 0.69274 0.85662 0.00000
H382 H 0.34094 0.66807 0.94194 0.00000
H383 H 0.34993 0.67697 0.89044 0.00000
H384 H 0.33823 0.54481 0.86429 0.00000
H385 H 0.34827 0.60150 0.84290 0.00000
C386 C 0.42174 0.68918 0.92323 0.00000
C387 C 0.43207 0.66175 0.96332 0.00000
C388 C 0.32873 0.59623 0.90926 0.00000
C389 C 0.34215 0.57189 0.94981 0.00000
C390 C 0.42004 0.61229 0.87479 0.00000
C391 C 0.43043 0.58741 0.91649 0.00000
C392 C 0.40554 0.59806 0.95749 0.00000
C393 C 0.44627 0.67612 0.88268 0.00000
C394 C 0.35746 0.66051 0.91620 0.00000
C395 C 0.35581 0.58571 0.86909 0.00000
H396 H 0.23037 0.68992 0.54198 0.00000
H397 H 0.27323 0.59027 0.53656 0.00000
H398 H 0.15804 0.56431 0.60222 0.00000
H399 H 0.15869 0.61933 0.59231 0.00000
H400 H 0.22868 0.54639 0.56784 0.00000
H401 H 0.27427 0.67879 0.52062 0.00000
H402 H 0.23572 0.71224 0.62242 0.00000
H403 H 0.28462 0.71420 0.65157 0.00000
H404 H 0.35241 0.68264 0.56563 0.00000
H405 H 0.35607 0.69607 0.61680 0.00000
H406 H 0.23400 0.56602 0.64876 0.00000
H407 H 0.28356 0.62467 0.66770 0.00000
C408 C 0.29428 0.70484 0.58489 0.00000
C409 C 0.25301 0.67370 0.54633 0.00000
C410 C 0.29320 0.61363 0.60132 0.00000
C411 C 0.25196 0.58552 0.56221 0.00000
C412 C 0.22041 0.63210 0.63675 0.00000
C413 C 0.18160 0.60337 0.59646 0.00000
C414 C 0.21468 0.61059 0.55456 0.00000
C415 C 0.25904 0.69517 0.62645 0.00000
C416 C 0.32985 0.67722 0.59199 0.00000
C417 C 0.25799 0.60646 0.64243 0.00000
H418 H 0.61141 0.16326 0.74745 0.00000
H419 H 0.55997 0.23759 0.68947 0.00000
H420 H 0.70546 0.28653 0.69037 0.00000
H421 H 0.70329 0.23981 0.71929 0.00000
H422 H 0.61708 0.28517 0.67197 0.00000
H423 H 0.55648 0.16242 0.73602 0.00000
H424 H 0.68276 0.23577 0.79969 0.00000
H425 H 0.67125 0.28161 0.82071 0.00000
H426 H 0.53676 0.23351 0.76930 0.00000
H427 H 0.58186 0.28023 0.80210 0.00000
H428 H 0.68853 0.35996 0.72279 0.00000
H429 H 0.67479 0.35765 0.77363 0.00000
C430 C 0.60234 0.22011 0.78472 0.00000
C431 C 0.59556 0.18610 0.74242 0.00000
C432 C 0.60594 0.29757 0.73676 0.00000
C433 C 0.59904 0.26098 0.69605 0.00000
C434 C 0.69701 0.29898 0.75571 0.00000
C435 C 0.68709 0.26234 0.71437 0.00000
C436 C 0.62448 0.22395 0.70309 0.00000
C437 C 0.66598 0.25904 0.79408 0.00000
C438 C 0.57739 0.25768 0.77565 0.00000
C439 C 0.66949 0.33440 0.74743 0.00000
H440 H 0.55357 0.33360 0.46743 0.00000
H441 H 0.69909 0.43371 0.47502 0.00000
H442 H 0.60986 0.46285 0.41227 0.00000
H443 H 0.55399 0.40700 0.42054 0.00000
H444 H 0.69934 0.47932 0.44587 0.00000
H445 H 0.60919 0.34384 0.48832 0.00000
H446 H 0.53574 0.31631 0.38642 0.00000
H447 H 0.58274 0.31663 0.35641 0.00000
H448 H 0.68356 0.34352 0.44192 0.00000
H449 H 0.67325 0.33329 0.39039 0.00000
H450 H 0.68425 0.46477 0.36445 0.00000
H451 H 0.67367 0.40753 0.34296 0.00000
C452 C 0.60228 0.32191 0.42306 0.00000
C453 C 0.59297 0.35037 0.46318 0.00000
C454 C 0.69492 0.41451 0.40936 0.00000
C455 C 0.68253 0.43990 0.44993 0.00000
C456 C 0.60271 0.39754 0.37474 0.00000
C457 C 0.59338 0.42348 0.41646 0.00000
C458 C 0.61934 0.41391 0.45748 0.00000
C459 C 0.57669 0.33391 0.38249 0.00000
C460 C 0.66638 0.35042 0.41617 0.00000
C461 C 0.66680 0.42399 0.36916 0.00000
F462 F 0.48804 0.68066 0.23392 0.00000
C463 C 0.43472 0.64779 0.21983 0.00000
C464 C 0.41189 0.68676 0.21062 0.00000
F465 F 0.43699 0.71466 0.17435 0.00000
F466 F 0.40556 0.61354 0.25326 0.00000
F467 F 0.35663 0.65483 0.20152 0.00000
F468 F 0.77698 0.45473 0.33892 0.00000
C469 C 0.79359 0.44385 0.37704 0.00000
C470 C 0.74114 0.41351 0.40577 0.00000
F471 F 0.70949 0.36191 0.38882 0.00000
F472 F 0.83035 0.49408 0.39591 0.00000
F473 F 0.75727 0.40798 0.44604 0.00000
F474 F 0.82412 0.33918 0.78165 0.00000
C475 C 0.81051 0.37681 0.76869 0.00000
C476 C 0.74626 0.34793 0.77183 0.00000
F477 F 0.73455 0.34414 0.81437 0.00000
F478 F 0.82520 0.38788 0.72616 0.00000
F479 F 0.73038 0.38184 0.75414 0.00000
F480 F 0.48393 0.82320 0.91679 0.00000
C481 C 0.43339 0.79120 0.93512 0.00000
C482 C 0.42825 0.73489 0.94634 0.00000
F483 F 0.46264 0.74502 0.98038 0.00000
F484 F 0.39428 0.78195 0.90422 0.00000
F485 F 0.37563 0.69932 0.95987 0.00000
F486 F 0.64095 0.27526 0.48264 0.00000
C487 C 0.59155 0.23688 0.46440 0.00000
C488 C 0.58420 0.26328 0.42277 0.00000
F489 F 0.62046 0.26441 0.39376 0.00000
F490 F 0.55099 0.22845 0.49305 0.00000
F491 F 0.53224 0.22884 0.40646 0.00000
F492 F 0.39469 0.60308 0.57699 0.00000
C493 C 0.38098 0.60262 0.61910 0.00000
C494 C 0.31844 0.58423 0.61964 0.00000
F495 F 0.28973 0.52950 0.60968 0.00000
F496 F 0.41171 0.65623 0.63419 0.00000
F497 F 0.30486 0.58980 0.66071 0.00000
F498 F 0.24804 0.63396 0.31206 0.00000
C499 C 0.21541 0.64506 0.28661 0.00000
C500 C 0.25142 0.67892 0.24766 0.00000
F501 F 0.25721 0.64290 0.22241 0.00000
F502 F 0.20251 0.67805 0.31050 0.00000
F503 F 0.22246 0.69664 0.22425 0.00000
F504 F 0.62612 0.39670 0.15236 0.00000
C505 C 0.64647 0.44001 0.12463 0.00000
C506 C 0.68175 0.43060 0.09094 0.00000
F507 F 0.64540 0.38815 0.06517 0.00000
F508 F 0.68088 0.48706 0.14827 0.00000
F509 F 0.70834 0.47644 0.06583 0.00000
F510 F 0.35941 0.83805 0.59444 0.00000
C511 C 0.38212 0.81197 0.57347 0.00000
C512 C 0.33337 0.75306 0.56070 0.00000
F513 F 0.30533 0.76012 0.52822 0.00000
F514 F 0.41595 0.80667 0.60266 0.00000
F515 F 0.35503 0.72330 0.54436 0.00000
F516 F 0.52817 0.34337 0.75595 0.00000
C517 C 0.57727 0.37533 0.73560 0.00000
C518 C 0.59432 0.33512 0.71625 0.00000
F519 F 0.55964 0.30894 0.68243 0.00000
F520 F 0.61547 0.40791 0.76671 0.00000
F521 F 0.64647 0.36587 0.70021 0.00000
F522 F 0.23895 0.56120 0.83953 0.00000
C523 C 0.22570 0.57039 0.87965 0.00000
C524 C 0.28023 0.59799 0.90709 0.00000
F525 F 0.31178 0.65035 0.89255 0.00000
F526 F 0.18931 0.51943 0.89660 0.00000
F527 F 0.26744 0.60163 0.94884 0.00000
F528 F 0.65611 0.18906 0.09378 0.00000
C529 C 0.63107 0.21097 0.07033 0.00000
C530 C 0.67792 0.26878 0.05469 0.00000
F531 F 0.70549 0.25898 0.02367 0.00000
F532 F 0.59754 0.21843 0.09803 0.00000
F533 F 0.65399 0.29490 0.03561 0.00000
F534 F 0.37696 0.55476 0.05320 0.00000
C535 C 0.39630 0.53035 0.02621 0.00000
C536 C 0.42770 0.57232 0.98947 0.00000
F537 F 0.47541 0.61358 0.00723 0.00000
F538 F 0.35082 0.48426 0.00873 0.00000
F539 F 0.44180 0.54680 0.95900 0.00000
F540 F 0.91475 0.42791 0.15784 0.00000
C541 C 0.88060 0.41766 0.19191 0.00000
C542 C 0.82007 0.38434 0.17387 0.00000
F543 F 0.80969 0.33288 0.16436 0.00000
F544 F 0.89096 0.46810 0.20704 0.00000
F545 F 0.78492 0.37918 0.20597 0.00000
F546 F 0.90058 0.44368 0.99016 0.00000
C547 C 0.86831 0.46465 0.97865 0.00000
C548 C 0.83327 0.45999 0.01887 0.00000
F549 F 0.86865 0.49871 0.04759 0.00000
F550 F 0.83319 0.43096 0.94638 0.00000
F551 F 0.79559 0.47424 0.00706 0.00000
F552 F 0.33122 0.84573 0.13480 0.00000
C553 C 0.38752 0.87550 0.13847 0.00000
C554 C 0.40564 0.83479 0.15448 0.00000
F555 F 0.39815 0.80083 0.12073 0.00000
F556 F 0.40070 0.91524 0.16978 0.00000
F557 F 0.46102 0.86448 0.16361 0.00000
F558 F 0.68111 0.19462 0.62587 0.00000
C559 C 0.63269 0.15217 0.64139 0.00000
C560 C 0.60220 0.17873 0.66348 0.00000
F561 F 0.58359 0.19742 0.63132 0.00000
F562 F 0.64647 0.12644 0.67227 0.00000
F563 F 0.55686 0.13810 0.68400 0.00000
F564 F 0.50637 0.67010 0.80285 0.00000
C565 C 0.49524 0.61867 0.81392 0.00000
C566 C 0.43739 0.58905 0.83580 0.00000
F567 F 0.39955 0.57679 0.80397 0.00000
F568 F 0.53462 0.62593 0.84391 0.00000
F569 F 0.42780 0.54007 0.85207 0.00000
F570 F 0.14125 0.49309 0.51387 0.00000
C571 C 0.13774 0.53345 0.49279 0.00000
C572 C 0.18858 0.58991 0.50783 0.00000
F573 F 0.23358 0.59340 0.48920 0.00000
F574 F 0.09015 0.53083 0.50646 0.00000
F575 F 0.18290 0.63156 0.49153 0.00000
F576 F 0.55916 0.36721 0.28090 0.00000
C577 C 0.53463 0.38619 0.30806 0.00000
C578 C 0.57727 0.41886 0.34501 0.00000
F579 F 0.61747 0.46662 0.32757 0.00000
F580 F 0.48948 0.34050 0.32524 0.00000
F581 F 0.55182 0.43271 0.37560 0.00000
F582 F 0.43101 0.89134 0.35753 0.00000
C583 C 0.45804 0.86284 0.35734 0.00000
C584 C 0.45352 0.84043 0.31047 0.00000
F585 F 0.48747 0.88473 0.28615 0.00000
F586 F 0.42970 0.81867 0.38440 0.00000
F587 F 0.47413 0.80601 0.31018 0.00000
F588 F 0.68068 0.51578 0.51322 0.00000
C589 C 0.62435 0.48964 0.51402 0.00000
C590 C 0.60163 0.42892 0.49827 0.00000
F591 F 0.61178 0.40315 0.53056 0.00000
F592 F 0.60901 0.51575 0.48468 0.00000
F593 F 0.54553 0.40336 0.49357 0.00000
F594 F 0.09848 0.58930 0.66402 0.00000
C595 C 0.13445 0.60211 0.69775 0.00000
C596 C 0.19393 0.63921 0.67956 0.00000
F597 F 0.19982 0.68908 0.67136 0.00000
F598 F 0.12871 0.55323 0.71161 0.00000
F599 F 0.23134 0.64728 0.71116 0.00000
F600 F 0.54430 0.10003 0.82348 0.00000
C601 C 0.54925 0.14138 0.84968 0.00000
C602 C 0.56254 0.19118 0.82008 0.00000
F603 F 0.51520 0.17680 0.79818 0.00000
F604 F 0.59392 0.15647 0.87654 0.00000
F605 F 0.57451 0.23566 0.84559 0.00000
loop_
_geom_bond_atom_site_label_1
_geom_bond_atom_site_label_2
_geom_bond_distance
_geom_bond_site_symmetry_2
_ccdc_geom_bond_type
C0 C1 1.395 . A
C0 H30 0.929 . S
C0 C54 1.408 . A
C1 C4 1.497 . S
C1 N19 1.356 . A
C2 C3 1.414 . A
C2 N35 1.345 . A
C2 H41 0.932 . S
C3 C8 1.396 . A
C4 C5 1.363 . A
C4 N24 1.374 . A
C5 C9 1.420 . A
C5 H31 0.930 . S
C6 C7 1.400 . A
C6 N24 1.352 . A
C6 H33 0.929 . S
C7 C9 1.387 . A
C8 C11 1.386 . A
C8 H40 0.931 . S
C9 H32 0.930 . S
C10 C12 1.470 . S
C10 N34 1.374 . A
C10 C51 1.376 . A
C11 C12 1.391 . A
C11 H39 0.930 . S
C12 N35 1.388 . A
C13 C14 1.382 . A
C13 N26 1.366 . A
C13 H43 0.929 . S
C14 C15 1.400 . A
C15 C16 1.404 . A
C15 H44 0.929 . S
C16 C17 1.400 . A
C16 H45 0.929 . S
C17 C18 1.472 . S
C17 N26 1.378 . A
C18 C20 1.404 . A
C18 N27 1.378 . A
N19 Co25 1.922 . S
N19 C52 1.345 . A
C20 C23 1.388 . A
C20 H46 0.930 . S
C21 C22 1.404 . A
C21 C23 1.387 . A
C22 N27 1.355 . A
C22 H48 0.930 . S
C23 H47 0.931 . S
N24 Co25 1.958 . S
Co25 N26 1.982 . S
Co25 N27 1.956 . S
Co25 N34 1.963 . S
Co25 N35 1.975 . S
H28 C52 0.931 . S
H29 C54 0.929 . S
N34 C42 1.373 . A
H36 C42 0.931 . S
H37 C50 0.931 . S
H38 C51 0.929 . S
C42 C49 1.394 . A
C49 C50 1.397 . A
C50 C51 1.398 . A
C52 C53 1.398 . A
C53 C54 1.381 . A
C55 C56 1.395 . A
C55 H85 0.929 . S
C55 C109 1.408 1_455 A
C56 C59 1.497 . S
C56 N74 1.356 1_455 A
C57 C58 1.414 . A
C57 N90 1.345 . A
C57 H96 0.932 . S
C58 C63 1.396 . A
C59 C60 1.363 . A
C59 N79 1.374 . A
C60 C64 1.420 . A
C60 H86 0.930 . S
C61 C62 1.400 . A
C61 N79 1.352 . A
C61 H88 0.929 . S
C62 C64 1.387 . A
C63 C66 1.386 . A
C63 H95 0.931 . S
C64 H87 0.930 . S
C65 C67 1.470 . S
C65 N89 1.374 1_655 A
C65 C106 1.376 . A
C66 C67 1.391 . A
C66 H94 0.930 . S
C67 N90 1.388 . A
C68 C69 1.382 . A
C68 N81 1.366 . A
C68 H98 0.929 . S
C69 C70 1.400 . A
C70 C71 1.404 . A
C70 H99 0.929 . S
C71 C72 1.400 . A
C71 H100 0.929 . S
C72 C73 1.472 . S
C72 N81 1.378 . A
C73 C75 1.404 1_655 A
C73 N82 1.378 1_655 A
N74 Co80 1.922 1_655 S
N74 C107 1.345 . A
C75 C78 1.388 . A
C75 H101 0.930 1_455 S
C76 C77 1.404 . A
C76 C78 1.387 . A
C77 N82 1.355 . A
C77 H103 0.930 . S
C78 H102 0.931 . S
N79 Co80 1.958 . S
Co80 N81 1.982 1_455 S
Co80 N82 1.956 . S
Co80 N89 1.963 . S
Co80 N90 1.975 1_455 S
H83 C107 0.931 . S
H84 C109 0.929 . S
N89 C97 1.373 . A
H91 C97 0.931 . S
H92 C105 0.932 1_655 S
H93 C106 0.929 . S
C97 C104 1.394 . A
C104 C105 1.397 . A
C105 C106 1.398 1_455 A
C107 C108 1.398 . A
C108 C109 1.381 . A
C110 C111 1.395 . A
C110 H140 0.929 . S
C110 C164 1.408 1_655 A
C111 C114 1.497 . S
C111 N129 1.356 1_655 A
C112 C113 1.414 . A
C112 N145 1.345 . A
C112 H151 0.932 . S
C113 C118 1.396 . A
C114 C115 1.363 . A
C114 N134 1.374 . A
C115 C119 1.420 . A
C115 H141 0.930 . S
C116 C117 1.400 . A
C116 N134 1.352 . A
C116 H143 0.929 . S
C117 C119 1.387 . A
C118 C121 1.386 . A
C118 H150 0.931 . S
C119 H142 0.930 . S
C120 C122 1.470 . S
C120 N144 1.374 . A
C120 C161 1.376 . A
C121 C122 1.391 . A
C121 H149 0.930 . S
C122 N145 1.388 . A
C123 C124 1.382 . A
C123 N136 1.366 . A
C123 H153 0.929 . S
C124 C125 1.400 . A
C125 C126 1.404 . A
C125 H154 0.929 . S
C126 C127 1.400 . A
C126 H155 0.929 . S
C127 C128 1.472 . S
C127 N136 1.378 . A
C128 C130 1.404 . A
C128 N137 1.378 1_455 A
N129 Co135 1.922 . S
N129 C162 1.345 . A
C130 C133 1.388 1_455 A
C130 H156 0.930 1_556 S
C131 C132 1.404 . A
C131 C133 1.387 . A
C132 N137 1.355 . A
C132 H158 0.930 . S
C133 H157 0.931 1_556 S
N134 Co135 1.958 1_655 S
Co135 N136 1.982 . S
Co135 N137 1.956 1_455 S
Co135 N144 1.963 . S
Co135 N145 1.975 . S
H138 C162 0.931 . S
H139 C164 0.929 . S
N144 C152 1.373 1_455 A
H146 C152 0.931 . S
H147 C160 0.931 . S
H148 C161 0.929 . S
C152 C159 1.394 . A
C159 C160 1.397 1_655 A
C160 C161 1.398 . A
C162 C163 1.398 . A
C163 C164 1.381 . A
C165 C166 1.395 . A
C165 H195 0.929 . S
C165 C219 1.408 1_544 A
C166 C169 1.497 . S
C166 N184 1.356 1_544 A
C167 C168 1.414 . A
C167 N200 1.345 . A
C167 H206 0.932 . S
C168 C173 1.396 . A
C169 C170 1.363 . A
C169 N189 1.374 . A
C170 C174 1.420 . A
C170 H196 0.930 . S
C171 C172 1.400 . A
C171 N189 1.352 . A
C171 H198 0.929 . S
C172 C174 1.387 . A
C173 C176 1.386 . A
C173 H205 0.931 . S
C174 H197 0.930 . S
C175 C177 1.470 . S
C175 N199 1.374 1_564 A
C175 C216 1.376 . A
C176 C177 1.391 . A
C176 H204 0.930 . S
C177 N200 1.388 . A
C178 C179 1.382 . A
C178 N191 1.366 . A
C178 H208 0.929 . S
C179 C180 1.400 . A
C180 C181 1.404 . A
C180 H209 0.929 . S
C181 C182 1.400 . A
C181 H210 0.929 . S
C182 C183 1.472 . S
C182 N191 1.378 . A
C183 C185 1.404 1_565 A
C183 N192 1.378 1_565 A
N184 Co190 1.922 1_565 S
N184 C217 1.345 . A
C185 C188 1.388 . A
C185 H211 0.930 1_545 S
C186 C187 1.404 . A
C186 C188 1.387 . A
C187 N192 1.355 . A
C187 H213 0.930 . S
C188 H212 0.931 . S
N189 Co190 1.958 1_554 S
Co190 N191 1.982 1_545 S
Co190 N192 1.956 . S
Co190 N199 1.963 . S
Co190 N200 1.975 1_546 S
H193 C217 0.931 . S
H194 C219 0.929 1_554 S
N199 C207 1.373 . A
H201 C207 0.931 . S
H202 C215 0.932 1_554 S
H203 C216 0.929 . S
C207 C214 1.394 . A
C214 C215 1.397 . A
C215 C216 1.398 1_546 A
C217 C218 1.398 . A
C218 C219 1.381 . A
C220 C221 1.395 . A
C220 H250 0.929 . S
C220 C274 1.408 1_565 A
C221 C224 1.497 . S
C221 N239 1.356 1_565 A
C222 C223 1.414 . A
C222 N255 1.345 . A
C222 H261 0.932 . S
C223 C228 1.396 . A
C224 C225 1.363 . A
C224 N244 1.374 . A
C225 C229 1.420 . A
C225 H251 0.930 . S
C226 C227 1.400 . A
C226 N244 1.352 . A
C226 H253 0.929 . S
C227 C229 1.387 . A
C228 C231 1.386 . A
C228 H260 0.931 . S
C229 H252 0.930 . S
C230 C232 1.470 . S
C230 N254 1.374 . A
C230 C271 1.376 . A
C231 C232 1.391 . A
C231 H259 0.930 . S
C232 N255 1.388 . A
C233 C234 1.382 . A
C233 N246 1.366 . A
C233 H263 0.929 . S
C234 C235 1.400 . A
C235 C236 1.404 . A
C235 H264 0.929 . S
C236 C237 1.400 . A
C236 H265 0.929 . S
C237 C238 1.472 . S
C237 N246 1.378 . A
C238 C240 1.410 . A
C238 N247 1.378 1_545 A
N239 Co245 1.922 . S
N239 C272 1.345 . A
C240 C243 1.367 1_545 A
C240 H266 0.946 . S
C241 C242 1.404 . A
C241 C243 1.387 . A
C242 N247 1.355 . A
C242 H268 0.930 . S
C243 H267 0.931 . S
N244 Co245 1.958 1_565 S
Co245 N246 1.982 . S
Co245 N247 1.956 1_545 S
Co245 N254 1.963 . S
Co245 N255 1.975 . S
H248 C272 0.931 . S
H249 C274 0.929 . S
N254 C262 1.373 1_545 A
H256 C262 0.931 . S
H257 C270 0.931 . S
H258 C271 0.929 . S
C262 C269 1.394 . A
C269 C270 1.397 1_565 A
C270 C271 1.398 . A
C272 C273 1.398 . A
C273 C274 1.381 . A
C275 C276 1.395 . A
C275 H305 0.929 . S
C275 C329 1.408 . A
C276 C279 1.497 . S
C276 N294 1.356 . A
C277 C278 1.414 . A
C277 N310 1.345 . A
C277 H316 0.932 . S
C278 C283 1.396 . A
C279 C280 1.363 . A
C279 N299 1.374 . A
C280 C284 1.420 . A
C280 H306 0.930 . S
C281 C282 1.400 . A
C281 N299 1.352 . A
C281 H308 0.929 . S
C282 C284 1.387 . A
C283 C286 1.386 . A
C283 H315 0.931 . S
C284 H307 0.930 . S
C285 C287 1.470 . S
C285 N309 1.374 . A
C285 C326 1.376 . A
C286 C287 1.391 . A
C286 H314 0.930 . S
C287 N310 1.388 . A
C288 C289 1.382 . A
C288 N301 1.366 . A
C288 H318 0.929 . S
C289 C290 1.400 . A
C290 C291 1.404 . A
C290 H319 0.929 . S
C291 C292 1.400 . A
C291 H320 0.929 . S
C292 C293 1.472 . S
C292 N301 1.378 . A
C293 C295 1.404 . A
C293 N302 1.378 . A
N294 Co300 1.922 . S
N294 C327 1.345 . A
C295 C298 1.388 . A
C295 H321 0.930 . S
C296 C297 1.404 . A
C296 C298 1.387 . A
C297 N302 1.355 . A
C297 H323 0.930 . S
C298 H322 0.931 . S
N299 Co300 1.958 . S
Co300 N301 1.982 . S
Co300 N302 1.956 . S
Co300 N309 1.963 . S
Co300 N310 1.975 . S
H303 C327 0.931 . S
H304 C329 0.929 . S
N309 C317 1.373 . A
H311 C317 0.931 . S
H312 C325 0.931 . S
H313 C326 0.929 . S
C317 C324 1.394 . A
C324 C325 1.397 . A
C325 C326 1.398 . A
C327 C328 1.398 . A
C328 C329 1.381 . A
H330 C343 0.955 . S
H331 C345 0.955 . S
H332 C347 0.955 . S
H333 C347 0.955 . S
H334 C345 0.955 . S
H335 C343 0.955 . S
H336 C349 0.990 . S
H337 C349 0.989 . S
H338 C350 0.990 . S
H339 C350 0.989 . S
H340 C351 0.990 . S
H341 C351 0.989 . S
C342 C343 1.552 . S
C342 C349 1.550 . S
C342 C350 1.550 . S
C343 C348 1.538 . S
C344 C345 1.552 . S
C344 C350 1.550 . S
C344 C351 1.550 . S
C345 C348 1.538 . S
C346 C347 1.552 . S
C346 C349 1.550 . S
C346 C351 1.550 . S
C347 C348 1.537 . S
H352 C365 0.955 . S
H353 C367 0.955 . S
H354 C369 0.955 . S
H355 C369 0.955 . S
H356 C367 0.955 . S
H357 C365 0.955 . S
H358 C371 0.990 . S
H359 C371 0.989 . S
H360 C372 0.990 . S
H361 C372 0.989 . S
H362 C373 0.990 . S
H363 C373 0.989 . S
C364 C365 1.552 . S
C364 C371 1.550 . S
C364 C372 1.550 . S
C365 C370 1.538 . S
C366 C367 1.552 . S
C366 C372 1.550 . S
C366 C373 1.550 . S
C367 C370 1.538 . S
C368 C369 1.552 . S
C368 C371 1.550 . S
C368 C373 1.550 . S
C369 C370 1.537 . S
H374 C387 0.955 . S
H375 C389 0.955 . S
H376 C391 0.955 . S
H377 C391 0.955 . S
H378 C389 0.955 . S
H379 C387 0.955 . S
H380 C393 0.990 . S
H381 C393 0.989 . S
H382 C394 0.990 . S
H383 C394 0.989 . S
H384 C395 0.990 . S
H385 C395 0.989 . S
C386 C387 1.552 . S
C386 C393 1.550 . S
C386 C394 1.550 . S
C387 C392 1.538 . S
C388 C389 1.552 . S
C388 C394 1.550 . S
C388 C395 1.550 . S
C389 C392 1.538 . S
C390 C391 1.552 . S
C390 C393 1.550 . S
C390 C395 1.550 . S
C391 C392 1.537 . S
H396 C409 0.955 . S
H397 C411 0.955 . S
H398 C413 0.955 . S
H399 C413 0.955 . S
H400 C411 0.955 . S
H401 C409 0.955 . S
H402 C415 0.990 . S
H403 C415 0.989 . S
H404 C416 0.990 . S
H405 C416 0.989 . S
H406 C417 0.990 . S
H407 C417 0.989 . S
C408 C409 1.552 . S
C408 C415 1.550 . S
C408 C416 1.550 . S
C409 C414 1.538 . S
C410 C411 1.552 . S
C410 C416 1.550 . S
C410 C417 1.550 . S
C411 C414 1.538 . S
C412 C413 1.552 . S
C412 C415 1.550 . S
C412 C417 1.550 . S
C413 C414 1.537 . S
H418 C431 0.955 . S
H419 C433 0.955 . S
H420 C435 0.955 . S
H421 C435 0.955 . S
H422 C433 0.955 . S
H423 C431 0.955 . S
H424 C437 0.990 . S
H425 C437 0.989 . S
H426 C438 0.990 . S
H427 C438 0.989 . S
H428 C439 0.990 . S
H429 C439 0.989 . S
C430 C431 1.552 . S
C430 C437 1.550 . S
C430 C438 1.550 . S
C431 C436 1.538 . S
C432 C433 1.552 . S
C432 C438 1.550 . S
C432 C439 1.550 . S
C433 C436 1.538 . S
C434 C435 1.552 . S
C434 C437 1.550 . S
C434 C439 1.550 . S
C435 C436 1.537 . S
H440 C453 0.955 . S
H441 C455 0.955 . S
H442 C457 0.955 . S
H443 C457 0.955 . S
H444 C455 0.955 . S
H445 C453 0.955 . S
H446 C459 0.990 . S
H447 C459 0.989 . S
H448 C460 0.990 . S
H449 C460 0.989 . S
H450 C461 0.990 . S
H451 C461 0.989 . S
C452 C453 1.552 . S
C452 C459 1.550 . S
C452 C460 1.550 . S
C453 C458 1.538 . S
C454 C455 1.552 . S
C454 C460 1.550 . S
C454 C461 1.550 . S
C455 C458 1.538 . S
C456 C457 1.552 . S
C456 C459 1.550 . S
C456 C461 1.550 . S
C457 C458 1.537 . S
F462 C463 1.346 . S
C463 C464 1.540 . S
C463 F466 1.357 . S
C464 F465 1.337 . S
C464 F467 1.347 . S
F468 C469 1.346 . S
C469 C470 1.540 . S
C469 F472 1.357 . S
C470 F471 1.337 . S
C470 F473 1.347 . S
F474 C475 1.346 . S
C475 C476 1.540 . S
C475 F478 1.357 . S
C476 F477 1.337 . S
C476 F479 1.347 . S
F480 C481 1.346 . S
C481 C482 1.540 . S
C481 F484 1.357 . S
C482 F483 1.337 . S
C482 F485 1.347 . S
F486 C487 1.346 . S
C487 C488 1.540 . S
C487 F490 1.357 . S
C488 F489 1.337 . S
C488 F491 1.347 . S
F492 C493 1.346 . S
C493 C494 1.540 . S
C493 F496 1.357 . S
C494 F495 1.337 . S
C494 F497 1.347 . S
F498 C499 1.346 . S
C499 C500 1.540 . S
C499 F502 1.357 . S
C500 F501 1.337 . S
C500 F503 1.347 . S
F504 C505 1.346 . S
C505 C506 1.540 . S
C505 F508 1.357 . S
C506 F507 1.337 . S
C506 F509 1.347 . S
F510 C511 1.346 . S
C511 C512 1.540 . S
C511 F514 1.357 . S
C512 F513 1.337 . S
C512 F515 1.347 . S
F516 C517 1.346 . S
C517 C518 1.540 . S
C517 F520 1.357 . S
C518 F519 1.337 . S
C518 F521 1.347 . S
F522 C523 1.346 . S
C523 C524 1.540 . S
C523 F526 1.357 . S
C524 F525 1.337 . S
C524 F527 1.347 . S
F528 C529 1.346 . S
C529 C530 1.540 . S
C529 F532 1.357 . S
C530 F531 1.337 . S
C530 F533 1.347 . S
F534 C535 1.346 . S
C535 C536 1.540 1_554 S
C535 F538 1.357 . S
C536 F537 1.337 1_556 S
C536 F539 1.347 . S
F540 C541 1.346 . S
C541 C542 1.540 . S
C541 F544 1.357 . S
C542 F543 1.337 . S
C542 F545 1.347 . S
F546 C547 1.346 . S
C547 C548 1.540 1_556 S
C547 F550 1.357 . S
C548 F549 1.337 . S
C548 F551 1.347 . S
F552 C553 1.346 . S
C553 C554 1.540 . S
C553 F556 1.357 . S
C554 F555 1.337 . S
C554 F557 1.347 . S
F558 C559 1.346 . S
C559 C560 1.540 . S
C559 F562 1.357 . S
C560 F561 1.337 . S
C560 F563 1.347 . S
F564 C565 1.346 . S
C565 C566 1.540 . S
C565 F568 1.357 . S
C566 F567 1.337 . S
C566 F569 1.347 . S
F570 C571 1.346 . S
C571 C572 1.540 . S
C571 F574 1.357 . S
C572 F573 1.337 . S
C572 F575 1.347 . S
F576 C577 1.346 . S
C577 C578 1.540 . S
C577 F580 1.357 . S
C578 F579 1.337 . S
C578 F581 1.347 . S
F582 C583 1.346 . S
C583 C584 1.540 . S
C583 F586 1.357 . S
C584 F585 1.337 . S
C584 F587 1.347 . S
F588 C589 1.346 . S
C589 C590 1.540 . S
C589 F592 1.357 . S
C590 F591 1.337 . S
C590 F593 1.347 . S
F594 C595 1.346 . S
C595 C596 1.540 . S
C595 F598 1.357 . S
C596 F597 1.337 . S
C596 F599 1.347 . S
F600 C601 1.346 . S
C601 C602 1.540 . S
C601 F604 1.357 . S
C602 F603 1.337 . S
C602 F605 1.347 . S
C464 C368 1.354 . S
C463 C14 1.142 . S
C470 C454 1.306 . S
C469 C69 1.274 . S
C476 C434 1.427 . S
C475 C117 1.551 . S
C482 C386 1.379 . S
C481 C179 1.180 . S
C488 C452 1.439 . S
C487 C234 1.467 . S
C493 C289 1.289 . S
C494 C410 1.439 . S
C500 C366 1.495 . S
C499 C62 1.516 . S
C505 C7 1.412 . S
C506 C342 1.409 . S
C512 C408 1.432 . S
C511 C227 1.460 . S
C518 C432 1.395 . S
C517 C282 1.400 . S
C524 C388 1.377 . S
C523 C124 1.363 . S
C530 C344 1.467 . S
C529 C172 1.489 . S
C536 C392 1.520 . S
C535 C3 1.465 . S
C542 C348 1.605 . S
C541 C58 1.270 . S
C548 C346 1.461 . S
C547 C131 1.255 . S
C554 C364 1.583 . S
C553 C168 1.559 . S
C560 C436 1.615 . S
C559 C223 1.583 . S
C565 C278 1.530 . S
C566 C390 1.549 . S
C572 C414 1.566 . S
C571 C76 1.284 . S
C578 C456 1.454 . S
C577 C21 1.496 . S
C583 C241 1.326 . S
C584 C370 1.516 . S
C589 C296 1.367 . S
C590 C458 1.481 . S
C595 C113 1.250 . S
C596 C412 1.569 . S
C601 C186 1.170 . S
C602 C430 1.468 . S
