# Generated by pormake.
# Topology sth, (5)-cn, num edge types: 1
# Building blocks:
#     Node 0, Type 0, BuildingBlock: N482, # of connection points: 5
#     Node 1, Type 0, BuildingBlock: N482, # of connection points: 5
#     Node 2, Type 0, BuildingBlock: N482, # of connection points: 5
#     Node 3, Type 0, BuildingBlock: N482, # of connection points: 5
#     Node 4, Type 0, BuildingBlock: N482, # of connection points: 5
#     Node 5, Type 0, BuildingBlock: N482, # of connection points: 5
#     Node 6, Type 0, BuildingBlock: N482, # of connection points: 5
#     Node 7, Type 0, BuildingBlock: N482, # of connection points: 5
#     Node 8, Type 0, BuildingBlock: N482, # of connection points: 5
#     Node 9, Type 0, BuildingBlock: N482, # of connection points: 5
#     Node 10, Type 0, BuildingBlock: N482, # of connection points: 5
#     Node 11, Type 0, BuildingBlock: N482, # of connection points: 5
#     Node 12, Type 0, BuildingBlock: N482, # of connection points: 5
#     Node 13, Type 0, BuildingBlock: N482, # of connection points: 5
#     Node 14, Type 0, BuildingBlock: N482, # of connection points: 5
#     Node 15, Type 0, BuildingBlock: N482, # of connection points: 5
#     Node 16, Type 0, BuildingBlock: N482, # of connection points: 5
#     Node 17, Type 0, BuildingBlock: N482, # of connection points: 5
#     Edge 18, Type (0, 0), BuildingBlock: E202, # of connection points: 2
#     Edge 19, Type (0, 0), BuildingBlock: E202, # of connection points: 2
#     Edge 20, Type (0, 0), BuildingBlock: E202, # of connection points: 2
#     Edge 21, Type (0, 0), BuildingBlock: E202, # of connection points: 2
#     Edge 22, Type (0, 0), BuildingBlock: E202, # of connection points: 2
#     Edge 23, Type (0, 0), BuildingBlock: E202, # of connection points: 2
#     Edge 24, Type (0, 0), BuildingBlock: E202, # of connection points: 2
#     Edge 25, Type (0, 0), BuildingBlock: E202, # of connection points: 2
#     Edge 26, Type (0, 0), BuildingBlock: E202, # of connection points: 2
#     Edge 27, Type (0, 0), BuildingBlock: E202, # of connection points: 2
#     Edge 28, Type (0, 0), BuildingBlock: E202, # of connection points: 2
#     Edge 29, Type (0, 0), BuildingBlock: E202, # of connection points: 2
#     Edge 30, Type (0, 0), BuildingBlock: E202, # of connection points: 2
#     Edge 31, Type (0, 0), BuildingBlock: E202, # of connection points: 2
#     Edge 32, Type (0, 0), BuildingBlock: E202, # of connection points: 2
#     Edge 33, Type (0, 0), BuildingBlock: E202, # of connection points: 2
#     Edge 34, Type (0, 0), BuildingBlock: E202, # of connection points: 2
#     Edge 35, Type (0, 0), BuildingBlock: E202, # of connection points: 2
#     Edge 36, Type (0, 0), BuildingBlock: E202, # of connection points: 2
#     Edge 37, Type (0, 0), BuildingBlock: E202, # of connection points: 2
#     Edge 38, Type (0, 0), BuildingBlock: E202, # of connection points: 2
#     Edge 39, Type (0, 0), BuildingBlock: E202, # of connection points: 2
#     Edge 40, Type (0, 0), BuildingBlock: E202, # of connection points: 2
#     Edge 41, Type (0, 0), BuildingBlock: E202, # of connection points: 2
#     Edge 42, Type (0, 0), BuildingBlock: E202, # of connection points: 2
#     Edge 43, Type (0, 0), BuildingBlock: E202, # of connection points: 2
#     Edge 44, Type (0, 0), BuildingBlock: E202, # of connection points: 2
#     Edge 45, Type (0, 0), BuildingBlock: E202, # of connection points: 2
#     Edge 46, Type (0, 0), BuildingBlock: E202, # of connection points: 2
#     Edge 47, Type (0, 0), BuildingBlock: E202, # of connection points: 2
#     Edge 48, Type (0, 0), BuildingBlock: E202, # of connection points: 2
#     Edge 49, Type (0, 0), BuildingBlock: E202, # of connection points: 2
#     Edge 50, Type (0, 0), BuildingBlock: E202, # of connection points: 2
#     Edge 51, Type (0, 0), BuildingBlock: E202, # of connection points: 2
#     Edge 52, Type (0, 0), BuildingBlock: E202, # of connection points: 2
#     Edge 53, Type (0, 0), BuildingBlock: E202, # of connection points: 2
#     Edge 54, Type (0, 0), BuildingBlock: E202, # of connection points: 2
#     Edge 55, Type (0, 0), BuildingBlock: E202, # of connection points: 2
#     Edge 56, Type (0, 0), BuildingBlock: E202, # of connection points: 2
#     Edge 57, Type (0, 0), BuildingBlock: E202, # of connection points: 2
#     Edge 58, Type (0, 0), BuildingBlock: E202, # of connection points: 2
#     Edge 59, Type (0, 0), BuildingBlock: E202, # of connection points: 2
#     Edge 60, Type (0, 0), BuildingBlock: E202, # of connection points: 2
#     Edge 61, Type (0, 0), BuildingBlock: E202, # of connection points: 2
#     Edge 62, Type (0, 0), BuildingBlock: E202, # of connection points: 2
# Relax obj value: 0.162
# Max RMSD: 0.142
# Mean RMSD: 0.142
data_sth+N482+E202
_symmetry_space_group_name_H-M    P1
_symmetry_Int_Tables_number       1
_symmetry_cell_setting            triclinic
loop_
_symmetry_equiv_pos_as_xyz
'x, y, z'
_cell_length_a     28.779
_cell_length_b     28.779
_cell_length_c     45.377
_cell_angle_alpha  90.006
_cell_angle_beta   89.994
_cell_angle_gamma  120.000
loop_
_atom_site_label
_atom_site_type_symbol
_atom_site_fract_x
_atom_site_fract_y
_atom_site_fract_z
_atom_type_partial_charge
Ni0 Ni 0.49777 0.95888 0.89144 0.00000
Ni1 Ni 0.37153 0.88713 0.90753 0.00000
C2 C 0.38458 0.96552 0.87570 0.00000
C3 C 0.28947 0.80509 0.90228 0.00000
O4 O 0.34201 0.94422 0.88858 0.00000
O5 O 0.30468 0.82209 0.92776 0.00000
O6 O 0.32057 0.82990 0.88076 0.00000
O7 O 0.40432 0.92844 0.94259 0.00000
O8 O 0.41681 0.95053 0.87786 0.00000
C9 C 0.45185 0.96460 0.94733 0.00000
C10 C 0.47860 0.86568 0.90622 0.00000
C11 C 0.56491 0.00486 0.85519 0.00000
O12 O 0.52599 0.89866 0.90677 0.00000
O13 O 0.56709 0.02988 0.87806 0.00000
O14 O 0.52471 0.95802 0.85139 0.00000
O15 O 0.49159 0.98193 0.93040 0.00000
O16 O 0.44463 0.87647 0.89924 0.00000
Ni17 Ni 0.12314 0.82630 0.22478 0.00000
Ni18 Ni 0.17764 0.95254 0.24086 0.00000
C19 C 0.24298 0.93949 0.20903 0.00000
C20 C 0.17765 0.03460 0.23561 0.00000
O21 O 0.26424 0.98206 0.22191 0.00000
O22 O 0.17945 0.01940 0.26109 0.00000
O23 O 0.17137 0.00350 0.21409 0.00000
O24 O 0.18615 0.91976 0.27593 0.00000
O25 O 0.19576 0.90726 0.21119 0.00000
C26 C 0.17478 0.87223 0.28066 0.00000
C27 C 0.04912 0.84548 0.23956 0.00000
C28 C 0.10198 0.75916 0.18853 0.00000
O29 O 0.03470 0.79808 0.24011 0.00000
O30 O 0.12482 0.75698 0.21139 0.00000
O31 O 0.09535 0.79936 0.18473 0.00000
O32 O 0.15237 0.83248 0.26373 0.00000
O33 O 0.09387 0.87944 0.23257 0.00000
Ni34 Ni 0.16445 0.29223 0.22478 0.00000
Ni35 Ni 0.03821 0.22048 0.24086 0.00000
C36 C 0.05125 0.29886 0.20903 0.00000
C37 C 0.95615 0.13843 0.23561 0.00000
O38 O 0.00869 0.27756 0.22192 0.00000
O39 O 0.97135 0.15544 0.26109 0.00000
O40 O 0.98725 0.16325 0.21409 0.00000
O41 O 0.07100 0.26179 0.27593 0.00000
O42 O 0.08349 0.28388 0.21119 0.00000
C43 C 0.11853 0.29795 0.28066 0.00000
C44 C 0.14527 0.19902 0.23956 0.00000
C45 C 0.23159 0.33820 0.18852 0.00000
O46 O 0.19267 0.23200 0.24011 0.00000
O47 O 0.23376 0.36322 0.21139 0.00000
O48 O 0.19138 0.29137 0.18472 0.00000
O49 O 0.15827 0.31527 0.26373 0.00000
O50 O 0.11130 0.20981 0.23257 0.00000
Ni51 Ni 0.83115 0.62559 0.55811 0.00000
Ni52 Ni 0.70491 0.55384 0.57420 0.00000
C53 C 0.71796 0.63223 0.54237 0.00000
C54 C 0.62285 0.47180 0.56895 0.00000
O55 O 0.67539 0.61093 0.55525 0.00000
O56 O 0.63805 0.48880 0.59443 0.00000
O57 O 0.65395 0.49661 0.54743 0.00000
O58 O 0.73769 0.59515 0.60926 0.00000
O59 O 0.75019 0.61724 0.54453 0.00000
C60 C 0.78522 0.63131 0.61400 0.00000
C61 C 0.81197 0.53239 0.57289 0.00000
C62 C 0.89829 0.67157 0.52186 0.00000
O63 O 0.85937 0.56537 0.57344 0.00000
O64 O 0.90047 0.69659 0.54473 0.00000
O65 O 0.85809 0.62473 0.51806 0.00000
O66 O 0.82497 0.64864 0.59707 0.00000
O67 O 0.77800 0.54317 0.56591 0.00000
Ni68 Ni 0.29223 0.16445 0.77522 0.00000
Ni69 Ni 0.22048 0.03821 0.75914 0.00000
C70 C 0.29886 0.05125 0.79097 0.00000
C71 C 0.13843 0.95615 0.76439 0.00000
O72 O 0.27756 0.00869 0.77808 0.00000
O73 O 0.15544 0.97135 0.73891 0.00000
O74 O 0.16325 0.98725 0.78591 0.00000
O75 O 0.26179 0.07100 0.72407 0.00000
O76 O 0.28388 0.08349 0.78881 0.00000
C77 C 0.29795 0.11853 0.71934 0.00000
C78 C 0.19903 0.14527 0.76044 0.00000
C79 C 0.33820 0.23159 0.81148 0.00000
O80 O 0.23200 0.19267 0.75989 0.00000
O81 O 0.36322 0.23376 0.78861 0.00000
O82 O 0.29137 0.19138 0.81528 0.00000
O83 O 0.31527 0.15827 0.73627 0.00000
O84 O 0.20981 0.11130 0.76743 0.00000
Ni85 Ni 0.82630 0.12315 0.77522 0.00000
Ni86 Ni 0.95254 0.17764 0.75914 0.00000
C87 C 0.93949 0.24298 0.79097 0.00000
C88 C 0.03460 0.17765 0.76439 0.00000
O89 O 0.98206 0.26424 0.77809 0.00000
O90 O 0.01939 0.17945 0.73891 0.00000
O91 O 0.00350 0.17137 0.78591 0.00000
O92 O 0.91976 0.18615 0.72408 0.00000
O93 O 0.90726 0.19576 0.78881 0.00000
C94 C 0.87222 0.17478 0.71934 0.00000
C95 C 0.84547 0.04912 0.76044 0.00000
C96 C 0.75916 0.10198 0.81147 0.00000
O97 O 0.79808 0.03470 0.75989 0.00000
O98 O 0.75698 0.12483 0.78861 0.00000
O99 O 0.79936 0.09535 0.81527 0.00000
O100 O 0.83248 0.15237 0.73627 0.00000
O101 O 0.87944 0.09387 0.76743 0.00000
Ni102 Ni 0.69854 0.86762 0.22478 0.00000
Ni103 Ni 0.77028 0.81313 0.24086 0.00000
C104 C 0.69190 0.74779 0.20903 0.00000
C105 C 0.85233 0.81312 0.23561 0.00000
O106 O 0.71320 0.72652 0.22191 0.00000
O107 O 0.83533 0.81132 0.26109 0.00000
O108 O 0.82752 0.81940 0.21409 0.00000
O109 O 0.72898 0.80462 0.27593 0.00000
O110 O 0.70688 0.79501 0.21119 0.00000
C111 C 0.69282 0.81599 0.28066 0.00000
C112 C 0.79174 0.94165 0.23956 0.00000
C113 C 0.65256 0.88878 0.18853 0.00000
O114 O 0.75876 0.95607 0.24011 0.00000
O115 O 0.62754 0.86594 0.21140 0.00000
O116 O 0.69940 0.89541 0.18473 0.00000
O117 O 0.67549 0.83840 0.26373 0.00000
O118 O 0.78095 0.89689 0.23257 0.00000
Ni119 Ni 0.86762 0.69854 0.77522 0.00000
Ni120 Ni 0.81313 0.77028 0.75914 0.00000
C121 C 0.74779 0.69190 0.79097 0.00000
C122 C 0.81312 0.85233 0.76439 0.00000
O123 O 0.72652 0.71320 0.77809 0.00000
O124 O 0.81132 0.83533 0.73891 0.00000
O125 O 0.81940 0.82752 0.78591 0.00000
O126 O 0.80462 0.72898 0.72407 0.00000
O127 O 0.79501 0.70688 0.78881 0.00000
C128 C 0.81599 0.69282 0.71934 0.00000
C129 C 0.94165 0.79174 0.76044 0.00000
C130 C 0.88878 0.65256 0.81147 0.00000
O131 O 0.95607 0.75876 0.75989 0.00000
O132 O 0.86594 0.62754 0.78860 0.00000
O133 O 0.89541 0.69940 0.81527 0.00000
O134 O 0.83840 0.67549 0.73627 0.00000
O135 O 0.89689 0.78095 0.76743 0.00000
Ni136 Ni 0.20097 0.36522 0.44189 0.00000
Ni137 Ni 0.14648 0.43697 0.42581 0.00000
C138 C 0.08114 0.35859 0.45764 0.00000
C139 C 0.14647 0.51902 0.43106 0.00000
O140 O 0.05987 0.37989 0.44476 0.00000
O141 O 0.14467 0.50201 0.40558 0.00000
O142 O 0.15275 0.49421 0.45258 0.00000
O143 O 0.13797 0.39567 0.39074 0.00000
O144 O 0.12836 0.37357 0.45548 0.00000
C145 C 0.14934 0.35950 0.38601 0.00000
C146 C 0.27500 0.45843 0.42711 0.00000
C147 C 0.22213 0.31925 0.47814 0.00000
O148 O 0.28942 0.42545 0.42655 0.00000
O149 O 0.19929 0.29423 0.45527 0.00000
O150 O 0.22876 0.36609 0.48194 0.00000
O151 O 0.17175 0.34218 0.40294 0.00000
O152 O 0.23024 0.44764 0.43409 0.00000
Ni153 Ni 0.62559 0.83115 0.44189 0.00000
Ni154 Ni 0.55384 0.70491 0.42580 0.00000
C155 C 0.63223 0.71796 0.45763 0.00000
C156 C 0.47180 0.62285 0.43105 0.00000
O157 O 0.61093 0.67539 0.44475 0.00000
O158 O 0.48880 0.63805 0.40557 0.00000
O159 O 0.49661 0.65395 0.45257 0.00000
O160 O 0.59515 0.73769 0.39074 0.00000
O161 O 0.61724 0.75019 0.45547 0.00000
C162 C 0.63131 0.78522 0.38600 0.00000
C163 C 0.53239 0.81197 0.42711 0.00000
C164 C 0.67157 0.89829 0.47814 0.00000
O165 O 0.56537 0.85937 0.42656 0.00000
O166 O 0.69659 0.90047 0.45527 0.00000
O167 O 0.62473 0.85809 0.48194 0.00000
O168 O 0.64864 0.82497 0.40293 0.00000
O169 O 0.54317 0.77800 0.43409 0.00000
Ni170 Ni 0.15967 0.78985 0.44189 0.00000
Ni171 Ni 0.28591 0.84434 0.42580 0.00000
C172 C 0.27286 0.90968 0.45764 0.00000
C173 C 0.36797 0.84435 0.43105 0.00000
O174 O 0.31543 0.93095 0.44475 0.00000
O175 O 0.35276 0.84615 0.40557 0.00000
O176 O 0.33687 0.83807 0.45257 0.00000
O177 O 0.25312 0.85285 0.39074 0.00000
O178 O 0.24063 0.86246 0.45548 0.00000
C179 C 0.20559 0.84148 0.38600 0.00000
C180 C 0.17885 0.71582 0.42711 0.00000
C181 C 0.09253 0.76869 0.47814 0.00000
O182 O 0.13145 0.70140 0.42656 0.00000
O183 O 0.09035 0.79153 0.45527 0.00000
O184 O 0.13273 0.76206 0.48194 0.00000
O185 O 0.16585 0.81906 0.40294 0.00000
O186 O 0.21281 0.76058 0.43409 0.00000
Ni187 Ni 0.36522 0.20097 0.55811 0.00000
Ni188 Ni 0.43697 0.14648 0.57419 0.00000
C189 C 0.35859 0.08114 0.54236 0.00000
C190 C 0.51902 0.14647 0.56894 0.00000
O191 O 0.37989 0.05987 0.55524 0.00000
O192 O 0.50201 0.14467 0.59442 0.00000
O193 O 0.49421 0.15275 0.54742 0.00000
O194 O 0.39567 0.13797 0.60926 0.00000
O195 O 0.37357 0.12836 0.54452 0.00000
C196 C 0.35950 0.14933 0.61399 0.00000
C197 C 0.45843 0.27500 0.57289 0.00000
C198 C 0.31925 0.22213 0.52186 0.00000
O199 O 0.42545 0.28942 0.57345 0.00000
O200 O 0.29423 0.19929 0.54473 0.00000
O201 O 0.36609 0.22876 0.51806 0.00000
O202 O 0.34218 0.17175 0.59706 0.00000
O203 O 0.44764 0.23024 0.56591 0.00000
Ni204 Ni 0.78985 0.15967 0.55811 0.00000
Ni205 Ni 0.84434 0.28591 0.57420 0.00000
C206 C 0.90968 0.27286 0.54237 0.00000
C207 C 0.84435 0.36797 0.56895 0.00000
O208 O 0.93095 0.31543 0.55525 0.00000
O209 O 0.84615 0.35276 0.59443 0.00000
O210 O 0.83807 0.33687 0.54743 0.00000
O211 O 0.85285 0.25312 0.60926 0.00000
O212 O 0.86246 0.24063 0.54452 0.00000
C213 C 0.84148 0.20559 0.61400 0.00000
C214 C 0.71582 0.17885 0.57290 0.00000
C215 C 0.76869 0.09253 0.52186 0.00000
O216 O 0.70140 0.13145 0.57344 0.00000
O217 O 0.79153 0.09035 0.54473 0.00000
O218 O 0.76206 0.13273 0.51806 0.00000
O219 O 0.81906 0.16585 0.59706 0.00000
O220 O 0.76058 0.21282 0.56591 0.00000
Ni221 Ni 0.95888 0.49777 0.10855 0.00000
Ni222 Ni 0.88713 0.37153 0.09247 0.00000
C223 C 0.96552 0.38458 0.12430 0.00000
C224 C 0.80509 0.28947 0.09772 0.00000
O225 O 0.94422 0.34201 0.11142 0.00000
O226 O 0.82209 0.30468 0.07224 0.00000
O227 O 0.82990 0.32057 0.11924 0.00000
O228 O 0.92844 0.40432 0.05740 0.00000
O229 O 0.95053 0.41681 0.12214 0.00000
C230 C 0.96460 0.45185 0.05267 0.00000
C231 C 0.86568 0.47860 0.09377 0.00000
C232 C 0.00486 0.56491 0.14481 0.00000
O233 O 0.89866 0.52599 0.09323 0.00000
O234 O 0.02988 0.56709 0.12194 0.00000
O235 O 0.95802 0.52471 0.14861 0.00000
O236 O 0.98193 0.49159 0.06960 0.00000
O237 O 0.87647 0.44463 0.10076 0.00000
Ni238 Ni 0.49298 0.45649 0.10856 0.00000
Ni239 Ni 0.61922 0.51098 0.09247 0.00000
C240 C 0.60617 0.57633 0.12430 0.00000
C241 C 0.70128 0.51099 0.09772 0.00000
O242 O 0.64874 0.59759 0.11142 0.00000
O243 O 0.68607 0.51279 0.07224 0.00000
O244 O 0.67017 0.50471 0.11924 0.00000
O245 O 0.58643 0.51949 0.05741 0.00000
O246 O 0.57393 0.52911 0.12214 0.00000
C247 C 0.53890 0.50813 0.05267 0.00000
C248 C 0.51215 0.38246 0.09377 0.00000
C249 C 0.42583 0.43533 0.14481 0.00000
O250 O 0.46476 0.36805 0.09322 0.00000
O251 O 0.42366 0.45817 0.12194 0.00000
O252 O 0.46604 0.42870 0.14861 0.00000
O253 O 0.49916 0.48571 0.06961 0.00000
O254 O 0.54612 0.42722 0.10076 0.00000
Ni255 Ni 0.53427 0.03186 0.10855 0.00000
Ni256 Ni 0.47978 0.10361 0.09247 0.00000
C257 C 0.41444 0.02523 0.12431 0.00000
C258 C 0.47977 0.18566 0.09773 0.00000
O259 O 0.39317 0.04653 0.11142 0.00000
O260 O 0.47797 0.16865 0.07224 0.00000
O261 O 0.48605 0.16084 0.11924 0.00000
O262 O 0.47127 0.06231 0.05741 0.00000
O263 O 0.46166 0.04021 0.12214 0.00000
C264 C 0.48264 0.02614 0.05267 0.00000
C265 C 0.60830 0.12507 0.09377 0.00000
C266 C 0.55543 0.98589 0.14480 0.00000
O267 O 0.62272 0.09209 0.09322 0.00000
O268 O 0.53259 0.96087 0.12194 0.00000
O269 O 0.56206 0.03272 0.14860 0.00000
O270 O 0.50505 0.00882 0.06960 0.00000
O271 O 0.56354 0.11428 0.10076 0.00000
Ni272 Ni 0.03186 0.53427 0.89145 0.00000
Ni273 Ni 0.10361 0.47978 0.90753 0.00000
C274 C 0.02523 0.41444 0.87570 0.00000
C275 C 0.18566 0.47977 0.90227 0.00000
O276 O 0.04653 0.39317 0.88858 0.00000
O277 O 0.16865 0.47797 0.92776 0.00000
O278 O 0.16084 0.48605 0.88076 0.00000
O279 O 0.06231 0.47127 0.94259 0.00000
O280 O 0.04021 0.46166 0.87786 0.00000
C281 C 0.02614 0.48264 0.94733 0.00000
C282 C 0.12507 0.60830 0.90623 0.00000
C283 C 0.98589 0.55543 0.85520 0.00000
O284 O 0.09209 0.62272 0.90678 0.00000
O285 O 0.96087 0.53259 0.87806 0.00000
O286 O 0.03272 0.56206 0.85140 0.00000
O287 O 0.00882 0.50505 0.93040 0.00000
O288 O 0.11428 0.56354 0.89924 0.00000
Ni289 Ni 0.45649 0.49298 0.89145 0.00000
Ni290 Ni 0.51098 0.61922 0.90753 0.00000
C291 C 0.57633 0.60617 0.87570 0.00000
C292 C 0.51099 0.70128 0.90228 0.00000
O293 O 0.59759 0.64874 0.88858 0.00000
O294 O 0.51279 0.68607 0.92776 0.00000
O295 O 0.50471 0.67018 0.88076 0.00000
O296 O 0.51949 0.58643 0.94259 0.00000
O297 O 0.52910 0.57394 0.87786 0.00000
C298 C 0.50813 0.53890 0.94733 0.00000
C299 C 0.38246 0.51215 0.90623 0.00000
C300 C 0.43533 0.42584 0.85519 0.00000
O301 O 0.36805 0.46476 0.90678 0.00000
O302 O 0.45817 0.42366 0.87806 0.00000
O303 O 0.42870 0.46604 0.85139 0.00000
O304 O 0.48571 0.49916 0.93040 0.00000
O305 O 0.42722 0.54612 0.89924 0.00000
H306 H 0.38168 0.06530 0.88432 0.00000
H307 H 0.33841 0.09736 0.85076 0.00000
C308 C 0.37989 0.01333 0.85346 0.00000
C309 C 0.37168 0.05237 0.86525 0.00000
C310 C 0.34679 0.07103 0.84577 0.00000
C311 C 0.33601 0.04690 0.81877 0.00000
S312 S 0.35626 0.99990 0.81771 0.00000
H313 H 0.32792 0.90667 0.12510 0.00000
H314 H 0.25114 0.87061 0.15781 0.00000
C315 C 0.36361 0.97719 0.14751 0.00000
C316 C 0.32500 0.92585 0.14076 0.00000
C317 C 0.28063 0.90493 0.15977 0.00000
C318 C 0.28485 0.93974 0.18144 0.00000
S319 S 0.34459 0.99990 0.17783 0.00000
H320 H 0.10003 0.42133 0.20074 0.00000
H321 H 0.06129 0.45962 0.16818 0.00000
C322 C 0.04915 0.34653 0.18521 0.00000
C323 C 0.07221 0.40098 0.18774 0.00000
C324 C 0.04987 0.42315 0.16881 0.00000
C325 C 0.00978 0.38609 0.15138 0.00000
S326 S 0.99888 0.32235 0.15902 0.00000
H327 H 0.93162 0.63005 0.48391 0.00000
H328 H 0.02507 0.66975 0.46990 0.00000
C329 C 0.94696 0.69779 0.50582 0.00000
C330 C 0.95769 0.66458 0.48925 0.00000
C331 C 0.01177 0.68766 0.48106 0.00000
C332 C 0.04306 0.73893 0.49103 0.00000
S333 S 0.00482 0.75854 0.51143 0.00000
H334 H 0.39664 0.40227 0.80110 0.00000
H335 H 0.34234 0.31042 0.78445 0.00000
C336 C 0.41581 0.37743 0.83871 0.00000
C337 C 0.39227 0.37291 0.81188 0.00000
C338 C 0.36098 0.31972 0.80221 0.00000
C339 C 0.36048 0.28288 0.82135 0.00000
S340 S 0.39879 0.31479 0.85222 0.00000
H341 H 0.73803 0.10147 0.86961 0.00000
H342 H 0.64766 0.04888 0.88871 0.00000
C343 C 0.71050 0.08487 0.82753 0.00000
C344 C 0.70795 0.08378 0.85763 0.00000
C345 C 0.65559 0.05346 0.86867 0.00000
C346 C 0.61735 0.03132 0.84722 0.00000
S347 S 0.64704 0.04761 0.81266 0.00000
H348 H 0.62163 0.93337 0.22031 0.00000
H349 H 0.56785 0.97301 0.20625 0.00000
C350 C 0.62502 0.91313 0.17782 0.00000
C351 C 0.61134 0.93423 0.20100 0.00000
C352 C 0.58034 0.95733 0.19283 0.00000
C353 C 0.57026 0.95464 0.16330 0.00000
S354 S 0.59895 0.92189 0.14538 0.00000
H355 H 0.98989 0.58845 0.19896 0.00000
H356 H 0.02745 0.68029 0.21562 0.00000
C357 C 0.03375 0.61331 0.16129 0.00000
C358 C 0.01483 0.61782 0.18815 0.00000
C359 C 0.03673 0.67101 0.19783 0.00000
C360 C 0.07298 0.70786 0.17866 0.00000
S361 S 0.07928 0.67596 0.14776 0.00000
H362 H 0.35047 0.41573 0.11324 0.00000
H363 H 0.25797 0.37762 0.12883 0.00000
C364 C 0.37367 0.41242 0.15508 0.00000
C365 C 0.33935 0.40619 0.13262 0.00000
C366 C 0.28577 0.38395 0.14165 0.00000
C367 C 0.27828 0.37247 0.17104 0.00000
S368 S 0.33907 0.39055 0.18792 0.00000
H369 H 0.89846 0.53752 0.87704 0.00000
H370 H 0.84496 0.57495 0.85889 0.00000
C371 C 0.95396 0.57568 0.84495 0.00000
C372 C 0.90816 0.56026 0.86085 0.00000
C373 C 0.87729 0.58209 0.85038 0.00000
C374 C 0.89921 0.61483 0.82652 0.00000
S375 S 0.95880 0.61778 0.81653 0.00000
H376 H 0.64550 0.69373 0.86478 0.00000
H377 H 0.71116 0.73238 0.82559 0.00000
C378 C 0.62916 0.61870 0.85366 0.00000
C379 C 0.65347 0.67337 0.85207 0.00000
C380 C 0.69161 0.69574 0.82942 0.00000
C381 C 0.69734 0.65861 0.81355 0.00000
S382 S 0.65381 0.59458 0.82663 0.00000
H383 H 0.07727 0.38912 0.50665 0.00000
H384 H 0.01287 0.35342 0.54658 0.00000
C385 C 0.03291 0.32181 0.48236 0.00000
C386 C 0.04635 0.35566 0.50597 0.00000
C387 C 0.00895 0.33503 0.52905 0.00000
C388 C 0.96622 0.28539 0.52333 0.00000
S389 S 0.97307 0.26343 0.48887 0.00000
H390 H 0.72612 0.63031 0.48523 0.00000
H391 H 0.69969 0.67051 0.44661 0.00000
C392 C 0.70907 0.66984 0.51663 0.00000
C393 C 0.71384 0.65410 0.48890 0.00000
C394 C 0.69836 0.67726 0.46655 0.00000
C395 C 0.68114 0.71065 0.47686 0.00000
S396 S 0.68518 0.71416 0.51500 0.00000
H397 H 0.32651 0.98039 0.54986 0.00000
H398 H 0.29992 0.91052 0.51311 0.00000
C399 C 0.31431 0.02716 0.52100 0.00000
C400 C 0.31605 0.98317 0.53087 0.00000
C401 C 0.30048 0.94266 0.50961 0.00000
C402 C 0.28621 0.95486 0.48329 0.00000
S403 S 0.29321 0.01828 0.48476 0.00000
H404 H 0.98060 0.42061 0.82084 0.00000
H405 H 0.93702 0.35019 0.78442 0.00000
C406 C 0.98508 0.36878 0.84948 0.00000
C407 C 0.97293 0.38555 0.82392 0.00000
C408 C 0.94785 0.34479 0.80281 0.00000
C409 C 0.94086 0.29644 0.81180 0.00000
S410 S 0.96497 0.30139 0.84737 0.00000
H411 H 0.63131 0.64045 0.22037 0.00000
H412 H 0.60328 0.56825 0.18499 0.00000
C413 C 0.64588 0.69400 0.18755 0.00000
C414 C 0.63078 0.64533 0.20016 0.00000
C415 C 0.61439 0.60351 0.17966 0.00000
C416 C 0.61628 0.61947 0.15115 0.00000
S417 S 0.63983 0.68791 0.14969 0.00000
H418 H 0.29219 0.27035 0.55324 0.00000
H419 H 0.23859 0.31029 0.53939 0.00000
C420 C 0.29196 0.24667 0.51105 0.00000
C421 C 0.28055 0.26996 0.53409 0.00000
C422 C 0.24966 0.29323 0.52604 0.00000
C423 C 0.23738 0.28848 0.49674 0.00000
S424 S 0.26383 0.25357 0.47891 0.00000
H425 H 0.65349 0.92243 0.53128 0.00000
H426 H 0.69114 0.01443 0.54769 0.00000
C427 C 0.70020 0.94669 0.49462 0.00000
C428 C 0.67954 0.95160 0.52081 0.00000
C429 C 0.70149 0.00487 0.53035 0.00000
C430 C 0.73950 0.04138 0.51175 0.00000
S431 S 0.74745 0.00906 0.48155 0.00000
H432 H 0.47482 0.94104 0.03947 0.00000
H433 H 0.46862 0.91209 0.98877 0.00000
C434 C 0.46801 0.00503 0.02677 0.00000
C435 C 0.47083 0.95925 0.02365 0.00000
C436 C 0.46706 0.94242 0.99429 0.00000
C437 C 0.46087 0.97477 0.97460 0.00000
S438 S 0.46073 0.02769 0.99280 0.00000
H439 H 0.22773 0.93607 0.37052 0.00000
H440 H 0.20534 0.95249 0.32161 0.00000
C441 C 0.20656 0.85965 0.35939 0.00000
C442 C 0.21483 0.91038 0.35568 0.00000
C443 C 0.20202 0.91992 0.32732 0.00000
C444 C 0.18423 0.87684 0.30890 0.00000
S445 S 0.18239 0.82310 0.32728 0.00000
H446 H 0.15446 0.28175 0.37147 0.00000
H447 H 0.14866 0.25415 0.32053 0.00000
C448 C 0.13557 0.33854 0.36008 0.00000
C449 C 0.14593 0.29749 0.35610 0.00000
C450 C 0.14239 0.28142 0.32661 0.00000
C451 C 0.12886 0.30959 0.30766 0.00000
S452 S 0.12137 0.35766 0.32675 0.00000
H453 H 0.79274 0.60113 0.70732 0.00000
H454 H 0.78580 0.57054 0.65692 0.00000
C455 C 0.80041 0.67171 0.69344 0.00000
C456 C 0.79413 0.62151 0.69111 0.00000
C457 C 0.78994 0.60376 0.66192 0.00000
C458 C 0.79250 0.63987 0.64155 0.00000
S459 S 0.80130 0.69741 0.65892 0.00000
H460 H 0.30312 0.04180 0.69169 0.00000
H461 H 0.34127 0.05667 0.64265 0.00000
C462 C 0.31021 0.11564 0.69184 0.00000
C463 C 0.31404 0.07326 0.68113 0.00000
C464 C 0.33597 0.08184 0.65270 0.00000
C465 C 0.34880 0.13063 0.64117 0.00000
S466 S 0.33431 0.16700 0.66631 0.00000
H467 H 0.78538 0.15604 0.70307 0.00000
H468 H 0.76478 0.16164 0.65188 0.00000
C469 C 0.86437 0.18757 0.69335 0.00000
C470 C 0.81117 0.16936 0.68829 0.00000
C471 C 0.79930 0.17278 0.65865 0.00000
C472 C 0.84324 0.19402 0.64070 0.00000
S473 S 0.90027 0.20913 0.66088 0.00000
H474 H 0.74023 0.88460 0.31778 0.00000
H475 H 0.71834 0.87008 0.36975 0.00000
C476 C 0.67971 0.80969 0.30800 0.00000
C477 C 0.71230 0.85280 0.32527 0.00000
C478 C 0.69949 0.84443 0.35535 0.00000
C479 C 0.65672 0.79504 0.36149 0.00000
S480 S 0.63254 0.75787 0.32937 0.00000
H481 H 0.96973 0.37510 0.02502 0.00000
H482 H 0.00786 0.38996 0.97598 0.00000
C483 C 0.97686 0.44896 0.02517 0.00000
C484 C 0.98066 0.40657 0.01447 0.00000
C485 C 0.00259 0.41513 0.98603 0.00000
C486 C 0.01544 0.46393 0.97450 0.00000
S487 S 0.00010 0.50032 0.99990 0.00000
H488 H 0.59936 0.60642 0.97161 0.00000
H489 H 0.62135 0.58943 0.02049 0.00000
C490 C 0.52439 0.54173 0.97462 0.00000
C491 C 0.57540 0.57801 0.98334 0.00000
C492 C 0.58805 0.56825 0.01169 0.00000
C493 C 0.54682 0.52471 0.02513 0.00000
S494 S 0.49159 0.49467 0.00193 0.00000
H495 H 0.18405 0.63747 0.86119 0.00000
H496 H 0.25870 0.72711 0.85291 0.00000
C497 C 0.17423 0.65731 0.90275 0.00000
C498 C 0.19640 0.66446 0.87530 0.00000
C499 C 0.23951 0.71643 0.87049 0.00000
C500 C 0.25065 0.74985 0.89406 0.00000
S501 S 0.20741 0.71585 0.92297 0.00000
H502 H 0.19151 0.17501 0.27944 0.00000
H503 H 0.22501 0.11389 0.27093 0.00000
C504 C 0.14537 0.14847 0.24263 0.00000
C505 C 0.18106 0.15160 0.26352 0.00000
C506 C 0.20031 0.11607 0.25863 0.00000
C507 C 0.17934 0.08499 0.23410 0.00000
S508 S 0.13562 0.10086 0.21645 0.00000
H509 H 0.81808 0.01136 0.28044 0.00000
H510 H 0.87920 0.10605 0.27214 0.00000
C511 C 0.84247 0.99224 0.24264 0.00000
C512 C 0.84066 0.02451 0.26419 0.00000
C513 C 0.87619 0.07933 0.25942 0.00000
C514 C 0.90595 0.08974 0.23432 0.00000
S515 S 0.88880 0.03040 0.21599 0.00000
H516 H 0.74447 0.44249 0.54237 0.00000
H517 H 0.76057 0.36795 0.53695 0.00000
C518 C 0.80862 0.48083 0.56967 0.00000
C519 C 0.77253 0.44107 0.55163 0.00000
C520 C 0.78198 0.39800 0.54843 0.00000
C521 C 0.82561 0.40438 0.56375 0.00000
S522 S 0.85491 0.46454 0.58296 0.00000
H523 H 0.10063 0.18595 0.81464 0.00000
H524 H 0.17549 0.17076 0.80786 0.00000
C525 C 0.07895 0.16780 0.77176 0.00000
C526 C 0.10849 0.17568 0.79677 0.00000
C527 C 0.15173 0.16670 0.79285 0.00000
C528 C 0.15563 0.15143 0.76489 0.00000
S529 S 0.10524 0.14914 0.74289 0.00000
H530 H 0.78388 0.90332 0.81024 0.00000
H531 H 0.79884 0.99298 0.80207 0.00000
C532 C 0.82143 0.90613 0.77183 0.00000
C533 C 0.80152 0.92379 0.79378 0.00000
C534 C 0.81036 0.97578 0.78909 0.00000
C535 C 0.83749 0.99877 0.76364 0.00000
S536 S 0.85143 0.95462 0.74490 0.00000
H537 H 0.89891 0.84384 0.27620 0.00000
H538 H 0.99362 0.87741 0.28446 0.00000
C539 C 0.90428 0.82043 0.23473 0.00000
C540 C 0.92143 0.84209 0.26212 0.00000
C541 C 0.97624 0.86137 0.26692 0.00000
C542 C 0.00167 0.85434 0.24340 0.00000
S543 S 0.95691 0.82413 0.21455 0.00000
H544 H 0.08880 0.87341 0.80901 0.00000
H545 H 0.99990 0.79881 0.80057 0.00000
C546 C 0.08472 0.91045 0.77182 0.00000
C547 C 0.06785 0.87148 0.79296 0.00000
C548 C 0.01589 0.82838 0.78811 0.00000
C549 C 0.99214 0.83395 0.76337 0.00000
S550 S 0.03551 0.89337 0.74546 0.00000
H551 H 0.20237 0.57420 0.39768 0.00000
H552 H 0.23586 0.66930 0.39117 0.00000
C553 C 0.15573 0.57151 0.43197 0.00000
C554 C 0.19172 0.59372 0.40938 0.00000
C555 C 0.21097 0.64876 0.40556 0.00000
C556 C 0.18968 0.66931 0.42497 0.00000
S557 S 0.14567 0.61960 0.44880 0.00000
H558 H 0.42686 0.53210 0.47052 0.00000
H559 H 0.33739 0.45796 0.46115 0.00000
C560 C 0.41840 0.57639 0.43837 0.00000
C561 C 0.40426 0.53304 0.45620 0.00000
C562 C 0.35238 0.49019 0.45083 0.00000
C563 C 0.32597 0.50029 0.42901 0.00000
S564 S 0.36667 0.56383 0.41450 0.00000
H565 H 0.44677 0.87146 0.47751 0.00000
H566 H 0.52150 0.85648 0.46950 0.00000
C567 C 0.41334 0.83588 0.43849 0.00000
C568 C 0.45011 0.85456 0.46085 0.00000
C569 C 0.49328 0.84572 0.45625 0.00000
C570 C 0.48994 0.81980 0.43046 0.00000
S571 S 0.43261 0.80703 0.41128 0.00000
H572 H 0.49197 0.34287 0.61634 0.00000
H573 H 0.55318 0.43775 0.60869 0.00000
C574 C 0.50968 0.32540 0.57598 0.00000
C575 C 0.51202 0.35669 0.59925 0.00000
C576 C 0.54760 0.41161 0.59484 0.00000
C577 C 0.57328 0.42306 0.56828 0.00000
S578 S 0.55212 0.36464 0.54815 0.00000
H579 H 0.64226 0.10118 0.59078 0.00000
H580 H 0.54907 0.07039 0.57940 0.00000
C581 C 0.66448 0.17553 0.57514 0.00000
C582 C 0.63061 0.12300 0.58236 0.00000
C583 C 0.57663 0.10524 0.57585 0.00000
C584 C 0.56838 0.14399 0.56381 0.00000
S585 S 0.62892 0.20336 0.55997 0.00000
H586 H 0.85854 0.54464 0.06412 0.00000
H587 H 0.79706 0.57711 0.07426 0.00000
C588 C 0.81653 0.48053 0.09100 0.00000
C589 C 0.82914 0.52710 0.07658 0.00000
C590 C 0.79342 0.54578 0.08239 0.00000
C591 C 0.75279 0.51360 0.10111 0.00000
S592 S 0.75960 0.45962 0.11216 0.00000
H593 H 0.51394 0.23335 0.05779 0.00000
H594 H 0.54758 0.32812 0.04977 0.00000
C595 C 0.48733 0.23768 0.09858 0.00000
C596 C 0.51099 0.25548 0.07166 0.00000
C597 C 0.53030 0.31033 0.06699 0.00000
C598 C 0.52132 0.33514 0.09013 0.00000
S599 S 0.48917 0.28974 0.11848 0.00000
H600 H 0.67822 0.15053 0.05325 0.00000
H601 H 0.77289 0.21165 0.06163 0.00000
C602 C 0.65891 0.17573 0.09069 0.00000
C603 C 0.69129 0.17342 0.06938 0.00000
C604 C 0.74610 0.20895 0.07420 0.00000
C605 C 0.75639 0.23921 0.09909 0.00000
S606 S 0.69696 0.22254 0.11717 0.00000
H607 H 0.22601 0.48957 0.94509 0.00000
H608 H 0.32025 0.52255 0.95463 0.00000
C609 C 0.23728 0.48567 0.90118 0.00000
C610 C 0.25069 0.49516 0.93035 0.00000
C611 C 0.30523 0.51409 0.93586 0.00000
C612 C 0.33420 0.51892 0.91107 0.00000
S613 S 0.29315 0.50058 0.88024 0.00000
H614 H 0.54765 0.78629 0.85891 0.00000
H615 H 0.53257 0.86078 0.86759 0.00000
C616 C 0.50327 0.74718 0.89487 0.00000
C617 C 0.52736 0.78740 0.87454 0.00000
C618 C 0.51847 0.83045 0.87952 0.00000
C619 C 0.48713 0.82359 0.90356 0.00000
S620 S 0.46918 0.76299 0.92064 0.00000
loop_
_geom_bond_atom_site_label_1
_geom_bond_atom_site_label_2
_geom_bond_distance
_geom_bond_site_symmetry_2
_ccdc_geom_bond_type
Ni0 O8 2.304 . S
Ni0 O12 2.357 . S
Ni0 O13 2.109 1_565 S
Ni0 O14 1.981 . S
Ni0 O15 1.927 . S
Ni0 O16 2.112 . S
Ni1 O4 2.357 . S
Ni1 O5 2.109 . S
Ni1 O6 1.981 . S
Ni1 O7 1.927 . S
Ni1 O8 2.112 . S
Ni1 O16 2.304 . S
C2 O4 1.211 . D
C2 O8 1.207 . S
C3 O5 1.247 . A
C3 O6 1.275 . A
O7 C9 1.256 . A
C9 O15 1.256 . A
C10 O12 1.211 . D
C10 O16 1.207 . S
C11 O13 1.247 . A
C11 O14 1.275 1_545 A
Ni17 O25 2.304 . S
Ni17 O29 2.357 . S
Ni17 O30 2.109 . S
Ni17 O31 1.981 . S
Ni17 O32 1.927 . S
Ni17 O33 2.112 . S
Ni18 O21 2.357 . S
Ni18 O22 2.109 1_565 S
Ni18 O23 1.981 1_565 S
Ni18 O24 1.927 . S
Ni18 O25 2.112 . S
Ni18 O33 2.304 . S
C19 O21 1.211 . D
C19 O25 1.207 . S
C20 O22 1.247 . A
C20 O23 1.275 . A
O24 C26 1.256 . A
C26 O32 1.256 . A
C27 O29 1.211 . D
C27 O33 1.207 . S
C28 O30 1.247 . A
C28 O31 1.275 . A
Ni34 O42 2.304 . S
Ni34 O46 2.357 . S
Ni34 O47 2.109 . S
Ni34 O48 1.981 . S
Ni34 O49 1.927 . S
Ni34 O50 2.112 . S
Ni35 O38 2.357 . S
Ni35 O39 2.109 1_455 S
Ni35 O40 1.981 1_455 S
Ni35 O41 1.927 . S
Ni35 O42 2.112 . S
Ni35 O50 2.304 . S
C36 O38 1.211 . D
C36 O42 1.207 . S
C37 O39 1.247 . A
C37 O40 1.275 . A
O41 C43 1.256 . A
C43 O49 1.256 . A
C44 O46 1.211 . D
C44 O50 1.207 . S
C45 O47 1.247 . A
C45 O48 1.275 . A
Ni51 O59 2.304 . S
Ni51 O63 2.357 . S
Ni51 O64 2.109 . S
Ni51 O65 1.981 . S
Ni51 O66 1.927 . S
Ni51 O67 2.112 . S
Ni52 O55 2.357 . S
Ni52 O56 2.109 . S
Ni52 O57 1.981 . S
Ni52 O58 1.927 . S
Ni52 O59 2.112 . S
Ni52 O67 2.304 . S
C53 O55 1.211 . D
C53 O59 1.207 . S
C54 O56 1.247 . A
C54 O57 1.275 . A
O58 C60 1.256 . A
C60 O66 1.256 . A
C61 O63 1.211 . D
C61 O67 1.207 . S
C62 O64 1.247 . A
C62 O65 1.275 . A
Ni68 O76 2.304 . S
Ni68 O80 2.357 . S
Ni68 O81 2.109 . S
Ni68 O82 1.981 . S
Ni68 O83 1.927 . S
Ni68 O84 2.112 . S
Ni69 O72 2.357 . S
Ni69 O73 2.109 1_545 S
Ni69 O74 1.981 1_545 S
Ni69 O75 1.927 . S
Ni69 O76 2.112 . S
Ni69 O84 2.304 . S
C70 O72 1.211 . D
C70 O76 1.207 . S
C71 O73 1.247 . A
C71 O74 1.275 . A
O75 C77 1.256 . A
C77 O83 1.256 . A
C78 O80 1.211 . D
C78 O84 1.207 . S
C79 O81 1.247 . A
C79 O82 1.275 . A
Ni85 O93 2.304 . S
Ni85 O97 2.357 . S
Ni85 O98 2.109 . S
Ni85 O99 1.981 . S
Ni85 O100 1.927 . S
Ni85 O101 2.112 . S
Ni86 O89 2.357 . S
Ni86 O90 2.109 1_655 S
Ni86 O91 1.981 1_655 S
Ni86 O92 1.927 . S
Ni86 O93 2.112 . S
Ni86 O101 2.304 . S
C87 O89 1.211 . D
C87 O93 1.207 . S
C88 O90 1.247 . A
C88 O91 1.275 . A
O92 C94 1.256 . A
C94 O100 1.256 . A
C95 O97 1.211 . D
C95 O101 1.207 . S
C96 O98 1.247 . A
C96 O99 1.275 . A
Ni102 O110 2.304 . S
Ni102 O114 2.357 . S
Ni102 O115 2.109 . S
Ni102 O116 1.981 . S
Ni102 O117 1.927 . S
Ni102 O118 2.112 . S
Ni103 O106 2.357 . S
Ni103 O107 2.109 . S
Ni103 O108 1.981 . S
Ni103 O109 1.927 . S
Ni103 O110 2.112 . S
Ni103 O118 2.304 . S
C104 O106 1.211 . D
C104 O110 1.207 . S
C105 O107 1.247 . A
C105 O108 1.275 . A
O109 C111 1.256 . A
C111 O117 1.256 . A
C112 O114 1.211 . D
C112 O118 1.207 . S
C113 O115 1.247 . A
C113 O116 1.275 . A
Ni119 O127 2.304 . S
Ni119 O131 2.357 . S
Ni119 O132 2.109 . S
Ni119 O133 1.981 . S
Ni119 O134 1.927 . S
Ni119 O135 2.112 . S
Ni120 O123 2.357 . S
Ni120 O124 2.109 . S
Ni120 O125 1.981 . S
Ni120 O126 1.927 . S
Ni120 O127 2.112 . S
Ni120 O135 2.304 . S
C121 O123 1.211 . D
C121 O127 1.207 . S
C122 O124 1.247 . A
C122 O125 1.275 . A
O126 C128 1.256 . A
C128 O134 1.256 . A
C129 O131 1.211 . D
C129 O135 1.207 . S
C130 O132 1.247 . A
C130 O133 1.275 . A
Ni136 O144 2.304 . S
Ni136 O148 2.357 . S
Ni136 O149 2.109 . S
Ni136 O150 1.981 . S
Ni136 O151 1.927 . S
Ni136 O152 2.112 . S
Ni137 O140 2.357 . S
Ni137 O141 2.109 . S
Ni137 O142 1.981 . S
Ni137 O143 1.927 . S
Ni137 O144 2.112 . S
Ni137 O152 2.304 . S
C138 O140 1.211 . D
C138 O144 1.207 . S
C139 O141 1.247 . A
C139 O142 1.275 . A
O143 C145 1.256 . A
C145 O151 1.256 . A
C146 O148 1.211 . D
C146 O152 1.207 . S
C147 O149 1.247 . A
C147 O150 1.275 . A
Ni153 O161 2.304 . S
Ni153 O165 2.357 . S
Ni153 O166 2.109 . S
Ni153 O167 1.981 . S
Ni153 O168 1.927 . S
Ni153 O169 2.112 . S
Ni154 O157 2.357 . S
Ni154 O158 2.109 . S
Ni154 O159 1.981 . S
Ni154 O160 1.927 . S
Ni154 O161 2.112 . S
Ni154 O169 2.304 . S
C155 O157 1.211 . D
C155 O161 1.207 . S
C156 O158 1.247 . A
C156 O159 1.275 . A
O160 C162 1.256 . A
C162 O168 1.256 . A
C163 O165 1.211 . D
C163 O169 1.207 . S
C164 O166 1.247 . A
C164 O167 1.275 . A
Ni170 O178 2.304 . S
Ni170 O182 2.357 . S
Ni170 O183 2.109 . S
Ni170 O184 1.981 . S
Ni170 O185 1.927 . S
Ni170 O186 2.112 . S
Ni171 O174 2.357 . S
Ni171 O175 2.109 . S
Ni171 O176 1.981 . S
Ni171 O177 1.927 . S
Ni171 O178 2.112 . S
Ni171 O186 2.304 . S
C172 O174 1.211 . D
C172 O178 1.207 . S
C173 O175 1.247 . A
C173 O176 1.275 . A
O177 C179 1.256 . A
C179 O185 1.256 . A
C180 O182 1.211 . D
C180 O186 1.207 . S
C181 O183 1.247 . A
C181 O184 1.275 . A
Ni187 O195 2.304 . S
Ni187 O199 2.357 . S
Ni187 O200 2.109 . S
Ni187 O201 1.981 . S
Ni187 O202 1.927 . S
Ni187 O203 2.112 . S
Ni188 O191 2.357 . S
Ni188 O192 2.109 . S
Ni188 O193 1.981 . S
Ni188 O194 1.927 . S
Ni188 O195 2.112 . S
Ni188 O203 2.304 . S
C189 O191 1.211 . D
C189 O195 1.207 . S
C190 O192 1.247 . A
C190 O193 1.275 . A
O194 C196 1.256 . A
C196 O202 1.256 . A
C197 O199 1.211 . D
C197 O203 1.207 . S
C198 O200 1.247 . A
C198 O201 1.275 . A
Ni204 O212 2.304 . S
Ni204 O216 2.357 . S
Ni204 O217 2.109 . S
Ni204 O218 1.981 . S
Ni204 O219 1.927 . S
Ni204 O220 2.112 . S
Ni205 O208 2.357 . S
Ni205 O209 2.109 . S
Ni205 O210 1.981 . S
Ni205 O211 1.927 . S
Ni205 O212 2.112 . S
Ni205 O220 2.304 . S
C206 O208 1.211 . D
C206 O212 1.207 . S
C207 O209 1.247 . A
C207 O210 1.275 . A
O211 C213 1.256 . A
C213 O219 1.256 . A
C214 O216 1.211 . D
C214 O220 1.207 . S
C215 O217 1.247 . A
C215 O218 1.275 . A
Ni221 O229 2.304 . S
Ni221 O233 2.357 . S
Ni221 O234 2.109 1_655 S
Ni221 O235 1.981 . S
Ni221 O236 1.927 . S
Ni221 O237 2.112 . S
Ni222 O225 2.357 . S
Ni222 O226 2.109 . S
Ni222 O227 1.981 . S
Ni222 O228 1.927 . S
Ni222 O229 2.112 . S
Ni222 O237 2.304 . S
C223 O225 1.211 . D
C223 O229 1.207 . S
C224 O226 1.247 . A
C224 O227 1.275 . A
O228 C230 1.256 . A
C230 O236 1.256 . A
C231 O233 1.211 . D
C231 O237 1.207 . S
C232 O234 1.247 . A
C232 O235 1.275 1_455 A
Ni238 O246 2.304 . S
Ni238 O250 2.357 . S
Ni238 O251 2.109 . S
Ni238 O252 1.981 . S
Ni238 O253 1.927 . S
Ni238 O254 2.112 . S
Ni239 O242 2.357 . S
Ni239 O243 2.109 . S
Ni239 O244 1.981 . S
Ni239 O245 1.927 . S
Ni239 O246 2.112 . S
Ni239 O254 2.304 . S
C240 O242 1.211 . D
C240 O246 1.207 . S
C241 O243 1.247 . A
C241 O244 1.275 . A
O245 C247 1.256 . A
C247 O253 1.256 . A
C248 O250 1.211 . D
C248 O254 1.207 . S
C249 O251 1.247 . A
C249 O252 1.275 . A
Ni255 O263 2.304 . S
Ni255 O267 2.357 . S
Ni255 O268 2.109 1_545 S
Ni255 O269 1.981 . S
Ni255 O270 1.927 . S
Ni255 O271 2.112 . S
Ni256 O259 2.357 . S
Ni256 O260 2.109 . S
Ni256 O261 1.981 . S
Ni256 O262 1.927 . S
Ni256 O263 2.112 . S
Ni256 O271 2.304 . S
C257 O259 1.211 . D
C257 O263 1.207 . S
C258 O260 1.247 . A
C258 O261 1.275 . A
O262 C264 1.256 . A
C264 O270 1.256 . A
C265 O267 1.211 . D
C265 O271 1.207 . S
C266 O268 1.247 . A
C266 O269 1.275 1_565 A
Ni272 O280 2.304 . S
Ni272 O284 2.357 . S
Ni272 O285 2.109 1_455 S
Ni272 O286 1.981 . S
Ni272 O287 1.927 . S
Ni272 O288 2.112 . S
Ni273 O276 2.357 . S
Ni273 O277 2.109 . S
Ni273 O278 1.981 . S
Ni273 O279 1.927 . S
Ni273 O280 2.112 . S
Ni273 O288 2.304 . S
C274 O276 1.211 . D
C274 O280 1.207 . S
C275 O277 1.247 . A
C275 O278 1.275 . A
O279 C281 1.256 . A
C281 O287 1.256 . A
C282 O284 1.211 . D
C282 O288 1.207 . S
C283 O285 1.247 . A
C283 O286 1.275 1_655 A
Ni289 O297 2.304 . S
Ni289 O301 2.357 . S
Ni289 O302 2.109 . S
Ni289 O303 1.981 . S
Ni289 O304 1.927 . S
Ni289 O305 2.112 . S
Ni290 O293 2.357 . S
Ni290 O294 2.109 . S
Ni290 O295 1.981 . S
Ni290 O296 1.927 . S
Ni290 O297 2.112 . S
Ni290 O305 2.304 . S
C291 O293 1.211 . D
C291 O297 1.207 . S
C292 O294 1.247 . A
C292 O295 1.275 . A
O296 C298 1.256 . A
C298 O304 1.256 . A
C299 O301 1.211 . D
C299 O305 1.207 . S
C300 O302 1.247 . A
C300 O303 1.275 . A
H306 C309 0.929 . S
H307 C310 0.930 . S
C308 C309 1.367 . A
C308 S312 1.726 1_545 A
C309 C310 1.403 . A
C310 C311 1.365 . A
C311 S312 1.720 1_545 A
H313 C316 0.929 . S
H314 C317 0.930 . S
C315 C316 1.367 . A
C315 S319 1.726 . A
C316 C317 1.403 . A
C317 C318 1.365 . A
C318 S319 1.733 . A
H320 C323 0.929 . S
H321 C324 0.930 . S
C322 C323 1.367 . A
C322 S326 1.727 1_455 A
C323 C324 1.403 . A
C324 C325 1.365 . A
C325 S326 1.734 1_455 A
H327 C330 0.929 . S
H328 C331 0.930 . S
C329 C330 1.367 . A
C329 S333 1.727 1_655 A
C330 C331 1.403 1_655 A
C331 C332 1.365 . A
C332 S333 1.734 . A
H334 C337 0.929 . S
H335 C338 0.930 . S
C336 C337 1.367 . A
C336 S340 1.727 . A
C337 C338 1.403 . A
C338 C339 1.365 . A
C339 S340 1.734 . A
H341 C344 0.929 . S
H342 C345 0.930 . S
C343 C344 1.367 . A
C343 S347 1.727 . A
C344 C345 1.403 . A
C345 C346 1.365 . A
C346 S347 1.734 . A
H348 C351 0.929 . S
H349 C352 0.930 . S
C350 C351 1.367 . A
C350 S354 1.727 . A
C351 C352 1.403 . A
C352 C353 1.365 . A
C353 S354 1.734 . A
H355 C358 0.929 1_655 S
H356 C359 0.930 . S
C357 C358 1.367 . A
C357 S361 1.727 . A
C358 C359 1.403 . A
C359 C360 1.365 . A
C360 S361 1.734 . A
H362 C365 0.929 . S
H363 C366 0.930 . S
C364 C365 1.367 . A
C364 S368 1.727 . A
C365 C366 1.403 . A
C366 C367 1.365 . A
C367 S368 1.734 . A
H369 C372 0.929 . S
H370 C373 0.930 . S
C371 C372 1.367 . A
C371 S375 1.727 . A
C372 C373 1.403 . A
C373 C374 1.365 . A
C374 S375 1.734 . A
H376 C379 0.929 . S
H377 C380 0.930 . S
C378 C379 1.367 . A
C378 S382 1.727 . A
C379 C380 1.403 . A
C380 C381 1.365 . A
C381 S382 1.734 . A
H383 C386 0.929 . S
H384 C387 0.930 . S
C385 C386 1.367 . A
C385 S389 1.727 1_455 A
C386 C387 1.403 . A
C387 C388 1.365 1_455 A
C388 S389 1.734 . A
H390 C393 0.929 . S
H391 C394 0.930 . S
C392 C393 1.367 . A
C392 S396 1.727 . A
C393 C394 1.403 . A
C394 C395 1.365 . A
C395 S396 1.734 . A
H397 C400 0.929 . S
H398 C401 0.930 . S
C399 C400 1.367 1_545 A
C399 S403 1.727 . A
C400 C401 1.403 . A
C401 C402 1.365 . A
C402 S403 1.734 1_565 A
H404 C407 0.929 . S
H405 C408 0.930 . S
C406 C407 1.367 . A
C406 S410 1.727 . A
C407 C408 1.403 . A
C408 C409 1.365 . A
C409 S410 1.734 . A
H411 C414 0.929 . S
H412 C415 0.930 . S
C413 C414 1.367 . A
C413 S417 1.727 . A
C414 C415 1.403 . A
C415 C416 1.365 . A
C416 S417 1.734 . A
H418 C421 0.929 . S
H419 C422 0.930 . S
C420 C421 1.367 . A
C420 S424 1.727 . A
C421 C422 1.403 . A
C422 C423 1.365 . A
C423 S424 1.734 . A
H425 C428 0.929 . S
H426 C429 0.930 . S
C427 C428 1.367 . A
C427 S431 1.727 1_565 A
C428 C429 1.403 1_565 A
C429 C430 1.365 . A
C430 S431 1.734 . A
H432 C435 0.929 . S
H433 C436 0.930 . S
C434 C435 1.367 1_545 A
C434 S438 1.727 1_554 A
C435 C436 1.403 1_554 A
C436 C437 1.365 . A
C437 S438 1.734 1_565 A
H439 C442 0.929 . S
H440 C443 0.930 . S
C441 C442 1.367 . A
C441 S445 1.727 . A
C442 C443 1.403 . A
C443 C444 1.365 . A
C444 S445 1.734 . A
H446 C449 0.929 . S
H447 C450 0.930 . S
C448 C449 1.367 . A
C448 S452 1.727 . A
C449 C450 1.403 . A
C450 C451 1.365 . A
C451 S452 1.734 . A
H453 C456 0.929 . S
H454 C457 0.930 . S
C455 C456 1.367 . A
C455 S459 1.727 . A
C456 C457 1.403 . A
C457 C458 1.365 . A
C458 S459 1.734 . A
H460 C463 0.929 . S
H461 C464 0.930 . S
C462 C463 1.367 . A
C462 S466 1.727 . A
C463 C464 1.403 . A
C464 C465 1.365 . A
C465 S466 1.734 . A
H467 C470 0.929 . S
H468 C471 0.930 . S
C469 C470 1.367 . A
C469 S473 1.727 . A
C470 C471 1.403 . A
C471 C472 1.365 . A
C472 S473 1.734 . A
H474 C477 0.929 . S
H475 C478 0.930 . S
C476 C477 1.367 . A
C476 S480 1.727 . A
C477 C478 1.403 . A
C478 C479 1.365 . A
C479 S480 1.734 . A
H481 C484 0.929 . S
H482 C485 0.930 . S
C483 C484 1.367 . A
C483 S487 1.720 1_654 A
C484 C485 1.403 1_654 A
C485 C486 1.365 . A
C486 S487 1.756 . A
H488 C491 0.929 . S
H489 C492 0.930 . S
C490 C491 1.367 . A
C490 S494 1.727 1_556 A
C491 C492 1.403 1_556 A
C492 C493 1.365 . A
C493 S494 1.734 . A
H495 C498 0.929 . S
H496 C499 0.930 . S
C497 C498 1.367 . A
C497 S501 1.727 . A
C498 C499 1.403 . A
C499 C500 1.365 . A
C500 S501 1.734 . A
H502 C505 0.929 . S
H503 C506 0.930 . S
C504 C505 1.367 . A
C504 S508 1.727 . A
C505 C506 1.403 . A
C506 C507 1.365 . A
C507 S508 1.734 . A
H509 C512 0.929 . S
H510 C513 0.930 . S
C511 C512 1.367 1_565 A
C511 S515 1.727 1_565 A
C512 C513 1.403 . A
C513 C514 1.365 . A
C514 S515 1.734 . A
H516 C519 0.929 . S
H517 C520 0.930 . S
C518 C519 1.367 . A
C518 S522 1.727 . A
C519 C520 1.403 . A
C520 C521 1.365 . A
C521 S522 1.734 . A
H523 C526 0.929 . S
H524 C527 0.930 . S
C525 C526 1.367 . A
C525 S529 1.727 . A
C526 C527 1.403 . A
C527 C528 1.365 . A
C528 S529 1.734 . A
H530 C533 0.929 . S
H531 C534 0.930 . S
C532 C533 1.367 . A
C532 S536 1.727 . A
C533 C534 1.403 . A
C534 C535 1.365 . A
C535 S536 1.734 . A
H537 C540 0.929 . S
H538 C541 0.930 . S
C539 C540 1.367 . A
C539 S543 1.727 . A
C540 C541 1.403 . A
C541 C542 1.365 1_655 A
C542 S543 1.734 1_455 A
H544 C547 0.929 . S
H545 C548 0.929 1_655 S
C546 C547 1.367 . A
C546 S550 1.727 . A
C547 C548 1.403 . A
C548 C549 1.365 1_455 A
C549 S550 1.734 1_655 A
H551 C554 0.929 . S
H552 C555 0.930 . S
C553 C554 1.367 . A
C553 S557 1.727 . A
C554 C555 1.403 . A
C555 C556 1.365 . A
C556 S557 1.734 . A
H558 C561 0.929 . S
H559 C562 0.930 . S
C560 C561 1.367 . A
C560 S564 1.727 . A
C561 C562 1.403 . A
C562 C563 1.365 . A
C563 S564 1.734 . A
H565 C568 0.929 . S
H566 C569 0.930 . S
C567 C568 1.367 . A
C567 S571 1.727 . A
C568 C569 1.403 . A
C569 C570 1.365 . A
C570 S571 1.734 . A
H572 C575 0.929 . S
H573 C576 0.930 . S
C574 C575 1.367 . A
C574 S578 1.727 . A
C575 C576 1.403 . A
C576 C577 1.365 . A
C577 S578 1.734 . A
H579 C582 0.929 . S
H580 C583 0.930 . S
C581 C582 1.367 . A
C581 S585 1.727 . A
C582 C583 1.403 . A
C583 C584 1.365 . A
C584 S585 1.734 . A
H586 C589 0.929 . S
H587 C590 0.930 . S
C588 C589 1.367 . A
C588 S592 1.727 . A
C589 C590 1.403 . A
C590 C591 1.365 . A
C591 S592 1.734 . A
H593 C596 0.929 . S
H594 C597 0.930 . S
C595 C596 1.367 . A
C595 S599 1.727 . A
C596 C597 1.403 . A
C597 C598 1.365 . A
C598 S599 1.734 . A
H600 C603 0.929 . S
H601 C604 0.930 . S
C602 C603 1.367 . A
C602 S606 1.727 . A
C603 C604 1.403 . A
C604 C605 1.365 . A
C605 S606 1.734 . A
H607 C610 0.929 . S
H608 C611 0.930 . S
C609 C610 1.367 . A
C609 S613 1.727 . A
C610 C611 1.403 . A
C611 C612 1.365 . A
C612 S613 1.734 . A
H614 C617 0.929 . S
H615 C618 0.930 . S
C616 C617 1.367 . A
C616 S620 1.727 . A
C617 C618 1.403 . A
C618 C619 1.365 . A
C619 S620 1.734 . A
C308 C2 1.765 1_545 S
C311 C70 1.698 . S
C315 C257 1.771 1_565 S
C318 C19 1.735 . S
C322 C36 1.771 . S
C325 C223 1.755 1_455 S
C329 C62 1.416 . S
C332 C181 1.372 . S
C336 C300 1.426 . S
C339 C79 1.358 . S
C343 C96 1.430 . S
C346 C11 1.356 . S
C350 C113 1.383 . S
C353 C266 1.442 . S
C357 C232 1.426 . S
C360 C28 1.358 . S
C364 C249 1.384 . S
C367 C45 1.443 . S
C371 C283 1.391 . S
C374 C130 1.436 . S
C378 C291 1.701 . S
C381 C121 1.639 . S
C385 C138 1.684 . S
C388 C206 1.714 . S
C392 C53 1.696 . S
C395 C155 1.756 . S
C399 C189 1.731 . S
C402 C172 1.641 . S
C406 C274 1.720 1_655 S
C409 C87 1.789 . S
C413 C104 1.746 . S
C416 C240 1.658 . S
C420 C198 1.383 . S
C423 C147 1.441 . S
C427 C164 1.425 . S
C430 C215 1.359 . S
C434 C264 1.293 . S
C437 C9 1.268 . S
C441 C179 1.311 . S
C444 C26 1.303 . S
C448 C145 1.291 . S
C451 C43 1.266 . S
C455 C128 1.295 . S
C458 C60 1.271 . S
C462 C77 1.311 . S
C465 C196 1.319 . S
C469 C94 1.289 . S
C472 C213 1.264 . S
C476 C111 1.283 . S
C479 C162 1.283 . S
C483 C230 1.311 . S
C486 C281 1.319 . S
C490 C298 1.312 . S
C493 C247 1.316 . S
C497 C282 1.422 . S
C500 C3 1.462 . S
C504 C44 1.463 . S
C507 C20 1.428 . S
C511 C112 1.465 . S
C514 C37 1.425 . S
C518 C61 1.445 . S
C521 C207 1.418 . S
C525 C88 1.478 . S
C528 C78 1.361 . S
C532 C122 1.483 . S
C535 C95 1.357 1_565 S
C539 C105 1.402 . S
C542 C27 1.519 . S
C546 C71 1.483 . S
C549 C129 1.356 . S
C553 C139 1.397 . S
C556 C180 1.522 . S
C560 C156 1.485 . S
C563 C146 1.358 . S
C567 C173 1.482 . S
C570 C163 1.357 . S
C574 C197 1.470 . S
C577 C54 1.415 . S
C581 C214 1.436 . S
C584 C190 1.476 . S
C588 C231 1.449 . S
C591 C241 1.454 . S
C595 C258 1.402 . S
C598 C248 1.520 . S
C602 C265 1.464 . S
C605 C224 1.426 . S
C609 C275 1.409 . S
C612 C299 1.512 . S
C616 C292 1.484 . S
C619 C10 1.356 . S
