# Generated by pormake.
# Topology ukf, (4)-cn, num edge types: 1
# Building blocks:
#     Node 0, Type 0, BuildingBlock: N164, # of connection points: 4
#     Node 1, Type 0, BuildingBlock: N164, # of connection points: 4
#     Node 2, Type 0, BuildingBlock: N164, # of connection points: 4
#     Node 3, Type 0, BuildingBlock: N164, # of connection points: 4
#     Node 4, Type 0, BuildingBlock: N164, # of connection points: 4
#     Node 5, Type 0, BuildingBlock: N164, # of connection points: 4
#     Node 6, Type 0, BuildingBlock: N164, # of connection points: 4
#     Node 7, Type 0, BuildingBlock: N164, # of connection points: 4
#     Node 8, Type 0, BuildingBlock: N164, # of connection points: 4
#     Node 9, Type 0, BuildingBlock: N164, # of connection points: 4
#     Node 10, Type 0, BuildingBlock: N164, # of connection points: 4
#     Node 11, Type 0, BuildingBlock: N164, # of connection points: 4
#     Edge 12, Type (0, 0), BuildingBlock: E134, # of connection points: 2
#     Edge 13, Type (0, 0), BuildingBlock: E134, # of connection points: 2
#     Edge 14, Type (0, 0), BuildingBlock: E134, # of connection points: 2
#     Edge 15, Type (0, 0), BuildingBlock: E134, # of connection points: 2
#     Edge 16, Type (0, 0), BuildingBlock: E134, # of connection points: 2
#     Edge 17, Type (0, 0), BuildingBlock: E134, # of connection points: 2
#     Edge 18, Type (0, 0), BuildingBlock: E134, # of connection points: 2
#     Edge 19, Type (0, 0), BuildingBlock: E134, # of connection points: 2
#     Edge 20, Type (0, 0), BuildingBlock: E134, # of connection points: 2
#     Edge 21, Type (0, 0), BuildingBlock: E134, # of connection points: 2
#     Edge 22, Type (0, 0), BuildingBlock: E134, # of connection points: 2
#     Edge 23, Type (0, 0), BuildingBlock: E134, # of connection points: 2
#     Edge 24, Type (0, 0), BuildingBlock: E134, # of connection points: 2
#     Edge 25, Type (0, 0), BuildingBlock: E134, # of connection points: 2
#     Edge 26, Type (0, 0), BuildingBlock: E134, # of connection points: 2
#     Edge 27, Type (0, 0), BuildingBlock: E134, # of connection points: 2
#     Edge 28, Type (0, 0), BuildingBlock: E134, # of connection points: 2
#     Edge 29, Type (0, 0), BuildingBlock: E134, # of connection points: 2
#     Edge 30, Type (0, 0), BuildingBlock: E134, # of connection points: 2
#     Edge 31, Type (0, 0), BuildingBlock: E134, # of connection points: 2
#     Edge 32, Type (0, 0), BuildingBlock: E134, # of connection points: 2
#     Edge 33, Type (0, 0), BuildingBlock: E134, # of connection points: 2
#     Edge 34, Type (0, 0), BuildingBlock: E134, # of connection points: 2
#     Edge 35, Type (0, 0), BuildingBlock: E134, # of connection points: 2
# Relax obj value: 0.129
# Max RMSD: 0.107
# Mean RMSD: 0.107
data_ukf+N164+E134
_symmetry_space_group_name_H-M    P1
_symmetry_Int_Tables_number       1
_symmetry_cell_setting            triclinic
loop_
_symmetry_equiv_pos_as_xyz
'x, y, z'
_cell_length_a     27.207
_cell_length_b     27.207
_cell_length_c     55.037
_cell_angle_alpha  90.000
_cell_angle_beta   90.000
_cell_angle_gamma  119.999
loop_
_atom_site_label
_atom_site_type_symbol
_atom_site_fract_x
_atom_site_fract_y
_atom_site_fract_z
_atom_type_partial_charge
O0 O 0.87229 0.21904 0.91880 0.00000
O1 O 0.80260 0.23387 0.91064 0.00000
O2 O 0.74959 0.24253 0.95564 0.00000
O3 O 0.80485 0.25332 0.98608 0.00000
In4 In 0.83236 0.24086 0.94946 0.00000
C5 C 0.80129 0.13887 0.96703 0.00000
O6 O 0.91944 0.30774 0.96114 0.00000
O7 O 0.86712 0.33531 0.94227 0.00000
C8 C 0.83736 0.21867 0.90403 0.00000
O9 O 0.85050 0.17774 0.97318 0.00000
O10 O 0.77313 0.14970 0.95212 0.00000
C11 C 0.76017 0.24929 0.97780 0.00000
C12 C 0.91154 0.34668 0.95369 0.00000
O13 O 0.65323 0.87226 0.25213 0.00000
O14 O 0.56870 0.80257 0.24397 0.00000
O15 O 0.50704 0.74956 0.28897 0.00000
O16 O 0.55152 0.80483 0.31941 0.00000
In17 In 0.59147 0.83233 0.28279 0.00000
C18 C 0.66240 0.80126 0.30036 0.00000
O19 O 0.61168 0.91941 0.29447 0.00000
O20 O 0.53180 0.86710 0.27560 0.00000
C21 C 0.61867 0.83733 0.23736 0.00000
O22 O 0.67275 0.85047 0.30651 0.00000
O23 O 0.62340 0.77310 0.28545 0.00000
C24 C 0.51087 0.76015 0.31113 0.00000
C25 C 0.56483 0.91151 0.28703 0.00000
O26 O 0.65323 0.78097 0.08120 0.00000
O27 O 0.56871 0.76614 0.08936 0.00000
O28 O 0.50704 0.75748 0.04436 0.00000
O29 O 0.55152 0.74669 0.01392 0.00000
In30 In 0.59147 0.75914 0.05054 0.00000
C31 C 0.66240 0.86114 0.03297 0.00000
O32 O 0.61168 0.69227 0.03886 0.00000
O33 O 0.53180 0.66470 0.05773 0.00000
C34 C 0.61867 0.78134 0.09597 0.00000
O35 O 0.67275 0.82227 0.02682 0.00000
O36 O 0.62340 0.85031 0.04788 0.00000
C37 C 0.51087 0.75072 0.02220 0.00000
C38 C 0.56483 0.65332 0.04630 0.00000
O39 O 0.87226 0.65323 0.41454 0.00000
O40 O 0.80257 0.56871 0.42270 0.00000
O41 O 0.74957 0.50705 0.37770 0.00000
O42 O 0.80483 0.55152 0.34726 0.00000
In43 In 0.83233 0.59148 0.38388 0.00000
C44 C 0.80126 0.66241 0.36631 0.00000
O45 O 0.91941 0.61168 0.37220 0.00000
O46 O 0.86710 0.53180 0.39107 0.00000
C47 C 0.83733 0.61867 0.42930 0.00000
O48 O 0.85047 0.67275 0.36016 0.00000
O49 O 0.77310 0.62341 0.38122 0.00000
C50 C 0.76015 0.51087 0.35554 0.00000
C51 C 0.91151 0.56484 0.37964 0.00000
O52 O 0.12774 0.34677 0.41454 0.00000
O53 O 0.19743 0.43130 0.42270 0.00000
O54 O 0.25044 0.49296 0.37770 0.00000
O55 O 0.19517 0.44848 0.34726 0.00000
In56 In 0.16767 0.40853 0.38388 0.00000
C57 C 0.19874 0.33760 0.36631 0.00000
O58 O 0.08059 0.38832 0.37220 0.00000
O59 O 0.13290 0.46820 0.39107 0.00000
C60 C 0.16267 0.38133 0.42930 0.00000
O61 O 0.14953 0.32725 0.36016 0.00000
O62 O 0.22690 0.37660 0.38122 0.00000
C63 C 0.23985 0.48913 0.35554 0.00000
C64 C 0.08849 0.43517 0.37964 0.00000
O65 O 0.78096 0.12771 0.74787 0.00000
O66 O 0.76613 0.19740 0.75603 0.00000
O67 O 0.75747 0.25041 0.71103 0.00000
O68 O 0.74668 0.19515 0.68059 0.00000
In69 In 0.75914 0.16764 0.71721 0.00000
C70 C 0.86113 0.19871 0.69964 0.00000
O71 O 0.69226 0.08056 0.70553 0.00000
O72 O 0.66469 0.13288 0.72440 0.00000
C73 C 0.78133 0.16264 0.76263 0.00000
O74 O 0.82226 0.14950 0.69349 0.00000
O75 O 0.85030 0.22687 0.71455 0.00000
C76 C 0.75071 0.23983 0.68887 0.00000
C77 C 0.65332 0.08846 0.71297 0.00000
O78 O 0.34677 0.21903 0.08120 0.00000
O79 O 0.43130 0.23387 0.08936 0.00000
O80 O 0.49296 0.24252 0.04436 0.00000
O81 O 0.44848 0.25331 0.01392 0.00000
In82 In 0.40853 0.24086 0.05054 0.00000
C83 C 0.33760 0.13886 0.03297 0.00000
O84 O 0.38832 0.30773 0.03886 0.00000
O85 O 0.46821 0.33530 0.05773 0.00000
C86 C 0.38133 0.21867 0.09596 0.00000
O87 O 0.32726 0.17773 0.02682 0.00000
O88 O 0.37660 0.14970 0.04788 0.00000
C89 C 0.48914 0.24928 0.02220 0.00000
C90 C 0.43517 0.34668 0.04630 0.00000
O91 O 0.21904 0.87229 0.74787 0.00000
O92 O 0.23387 0.80260 0.75603 0.00000
O93 O 0.24253 0.74959 0.71103 0.00000
O94 O 0.25331 0.80485 0.68059 0.00000
In95 In 0.24086 0.83235 0.71721 0.00000
C96 C 0.13887 0.80129 0.69964 0.00000
O97 O 0.30774 0.91943 0.70553 0.00000
O98 O 0.33531 0.86712 0.72440 0.00000
C99 C 0.21867 0.83736 0.76264 0.00000
O100 O 0.17773 0.85050 0.69349 0.00000
O101 O 0.14970 0.77312 0.71455 0.00000
C102 C 0.24928 0.76017 0.68887 0.00000
C103 C 0.34668 0.91153 0.71297 0.00000
O104 O 0.78097 0.65323 0.58547 0.00000
O105 O 0.76613 0.56870 0.57730 0.00000
O106 O 0.75748 0.50704 0.62231 0.00000
O107 O 0.74669 0.55152 0.65275 0.00000
In108 In 0.75914 0.59147 0.61613 0.00000
C109 C 0.86114 0.66240 0.63369 0.00000
O110 O 0.69227 0.61168 0.62781 0.00000
O111 O 0.66470 0.53179 0.60894 0.00000
C112 C 0.78133 0.61867 0.57070 0.00000
O113 O 0.82227 0.67274 0.63985 0.00000
O114 O 0.85030 0.62340 0.61879 0.00000
C115 C 0.75072 0.51086 0.64446 0.00000
C116 C 0.65332 0.56483 0.62036 0.00000
O117 O 0.12771 0.78096 0.91880 0.00000
O118 O 0.19740 0.76613 0.91063 0.00000
O119 O 0.25041 0.75747 0.95563 0.00000
O120 O 0.19515 0.74668 0.98608 0.00000
In121 In 0.16765 0.75914 0.94946 0.00000
C122 C 0.19871 0.86113 0.96702 0.00000
O123 O 0.08057 0.69226 0.96114 0.00000
O124 O 0.13288 0.66469 0.94227 0.00000
C125 C 0.16264 0.78133 0.90403 0.00000
O126 O 0.14950 0.82227 0.97318 0.00000
O127 O 0.22688 0.85030 0.95211 0.00000
C128 C 0.23983 0.75071 0.97779 0.00000
C129 C 0.08847 0.65332 0.95369 0.00000
O130 O 0.34677 0.12774 0.25213 0.00000
O131 O 0.43129 0.19743 0.24397 0.00000
O132 O 0.49295 0.25044 0.28897 0.00000
O133 O 0.44848 0.19517 0.31941 0.00000
In134 In 0.40852 0.16767 0.28279 0.00000
C135 C 0.33759 0.19874 0.30036 0.00000
O136 O 0.38832 0.08059 0.29447 0.00000
O137 O 0.46820 0.13290 0.27560 0.00000
C138 C 0.38133 0.16267 0.23736 0.00000
O139 O 0.32725 0.14953 0.30651 0.00000
O140 O 0.37659 0.22690 0.28545 0.00000
C141 C 0.48913 0.23985 0.31113 0.00000
C142 C 0.43516 0.08849 0.28703 0.00000
O143 O 0.21903 0.34677 0.58547 0.00000
O144 O 0.23386 0.43129 0.57730 0.00000
O145 O 0.24252 0.49296 0.62231 0.00000
O146 O 0.25331 0.44848 0.65275 0.00000
In147 In 0.24086 0.40852 0.61613 0.00000
C148 C 0.13886 0.33760 0.63369 0.00000
O149 O 0.30773 0.38832 0.62781 0.00000
O150 O 0.33530 0.46820 0.60894 0.00000
C151 C 0.21866 0.38133 0.57070 0.00000
O152 O 0.17773 0.32725 0.63985 0.00000
O153 O 0.14969 0.37660 0.61878 0.00000
C154 C 0.24928 0.48913 0.64446 0.00000
C155 C 0.34668 0.43517 0.62036 0.00000
H156 H 0.62934 0.92320 0.94674 0.00000
H157 H 0.60069 0.83731 0.96361 0.00000
H158 H 0.58955 0.83640 0.99160 0.00000
H159 H 0.64247 0.83350 0.98210 0.00000
H160 H 0.71350 0.05333 0.92910 0.00000
H161 H 0.65984 0.05143 0.94058 0.00000
H162 H 0.65317 0.00010 0.92454 0.00000
H163 H 0.74391 0.10854 0.96163 0.00000
H164 H 0.76707 0.11488 0.98822 0.00000
H165 H 0.79664 0.04933 0.01793 0.00000
H166 H 0.74417 0.01054 0.03434 0.00000
H167 H 0.75067 0.06667 0.02333 0.00000
H168 H 0.73393 0.93358 0.02622 0.00000
H169 H 0.68984 0.87615 0.01453 0.00000
C170 C 0.68966 0.94262 0.99990 0.00000
C171 C 0.72324 0.00223 0.99774 0.00000
C172 C 0.72198 0.03081 0.97719 0.00000
C173 C 0.68327 0.00115 0.95811 0.00000
C174 C 0.65226 0.94335 0.95979 0.00000
C175 C 0.65315 0.91301 0.97994 0.00000
C176 C 0.61826 0.84928 0.97927 0.00000
C177 C 0.67692 0.02913 0.93613 0.00000
C178 C 0.76168 0.09486 0.97298 0.00000
C179 C 0.75685 0.03532 0.02050 0.00000
C180 C 0.69498 0.91181 0.02067 0.00000
H181 H 0.65327 0.59600 0.29453 0.00000
H182 H 0.70794 0.56198 0.30934 0.00000
H183 H 0.71676 0.57015 0.33751 0.00000
H184 H 0.76734 0.60670 0.31978 0.00000
H185 H 0.61819 0.68577 0.27299 0.00000
H186 H 0.57229 0.64867 0.29239 0.00000
H187 H 0.59692 0.62071 0.27492 0.00000
H188 H 0.62583 0.74453 0.30250 0.00000
H189 H 0.66306 0.78162 0.32428 0.00000
H190 H 0.76979 0.80816 0.34315 0.00000
H191 H 0.75972 0.76601 0.36453 0.00000
H192 H 0.71135 0.77828 0.35685 0.00000
H193 H 0.80839 0.73360 0.35336 0.00000
H194 H 0.80306 0.67615 0.34560 0.00000
C195 C 0.73630 0.68305 0.33597 0.00000
C196 C 0.71944 0.72401 0.33280 0.00000
C197 C 0.67963 0.71719 0.31552 0.00000
C198 C 0.65125 0.66636 0.30178 0.00000
C199 C 0.66912 0.62784 0.30451 0.00000
C200 C 0.70976 0.63367 0.32135 0.00000
C201 C 0.72698 0.58906 0.32209 0.00000
C202 C 0.60568 0.65433 0.28392 0.00000
C203 C 0.66371 0.76276 0.30941 0.00000
C204 C 0.74223 0.77383 0.35107 0.00000
C205 C 0.78258 0.69298 0.35296 0.00000
H206 H 0.39752 0.41690 0.32255 0.00000
H207 H 0.34943 0.45950 0.33588 0.00000
H208 H 0.31434 0.43123 0.35949 0.00000
H209 H 0.28305 0.42363 0.33461 0.00000
H210 H 0.42348 0.32710 0.29429 0.00000
H211 H 0.44972 0.33551 0.32036 0.00000
H212 H 0.45361 0.38746 0.30624 0.00000
H213 H 0.37605 0.24368 0.31260 0.00000
H214 H 0.31807 0.19939 0.32437 0.00000
H215 H 0.21148 0.19197 0.32921 0.00000
H216 H 0.20932 0.21617 0.35481 0.00000
H217 H 0.25103 0.19306 0.35022 0.00000
H218 H 0.18976 0.27587 0.34498 0.00000
H219 H 0.21477 0.34126 0.34592 0.00000
C220 C 0.27384 0.31923 0.34178 0.00000
C221 C 0.28012 0.27264 0.33496 0.00000
C222 C 0.32872 0.28035 0.32352 0.00000
C223 C 0.37560 0.33575 0.32008 0.00000
C224 C 0.36836 0.38044 0.32610 0.00000
C225 C 0.31977 0.37441 0.33721 0.00000
C226 C 0.31634 0.42695 0.34229 0.00000
C227 C 0.43044 0.34751 0.30926 0.00000
C228 C 0.33593 0.23153 0.31337 0.00000
C229 C 0.23357 0.21279 0.34308 0.00000
C230 C 0.21977 0.31063 0.35203 0.00000
H231 H 0.95284 0.12378 0.63533 0.00000
H232 H 0.87927 0.07804 0.66131 0.00000
H233 H 0.84655 0.11104 0.66577 0.00000
H234 H 0.88442 0.10739 0.68643 0.00000
H235 H 0.08046 0.21142 0.61584 0.00000
H236 H 0.03801 0.21402 0.59734 0.00000
H237 H 0.02454 0.15576 0.60879 0.00000
H238 H 0.09458 0.29883 0.61799 0.00000
H239 H 0.08643 0.34210 0.63386 0.00000
H240 H 0.04437 0.33908 0.68094 0.00000
H241 H 0.98024 0.32176 0.67861 0.00000
H242 H 0.02127 0.34923 0.65643 0.00000
H243 H 0.94469 0.25408 0.70110 0.00000
H244 H 0.90235 0.18906 0.70058 0.00000
C245 C 0.94816 0.21754 0.67034 0.00000
C246 C 0.99799 0.26469 0.66127 0.00000
C247 C 0.03005 0.25860 0.64330 0.00000
C248 C 0.01104 0.20511 0.63210 0.00000
C249 C 0.96371 0.15958 0.64152 0.00000
C250 C 0.93096 0.16381 0.65989 0.00000
C251 C 0.88070 0.11023 0.66918 0.00000
C252 C 0.04121 0.19572 0.61173 0.00000
C253 C 0.08774 0.30712 0.63439 0.00000
C254 C 0.01231 0.32435 0.67015 0.00000
C255 C 0.91686 0.22354 0.69107 0.00000
H256 H 0.18117 0.05322 0.96420 0.00000
H257 H 0.20808 0.12728 0.98982 0.00000
H258 H 0.27289 0.15743 0.99617 0.00000
H259 H 0.22742 0.12085 0.01588 0.00000
H260 H 0.13857 0.92441 0.94559 0.00000
H261 H 0.18738 0.96551 0.92807 0.00000
H262 H 0.14289 0.98169 0.93754 0.00000
H263 H 0.20859 0.90615 0.95078 0.00000
H264 H 0.25647 0.91191 0.96841 0.00000
H265 H 0.28934 0.95318 0.01606 0.00000
H266 H 0.33853 0.01647 0.01435 0.00000
H267 H 0.32660 0.97504 0.99247 0.00000
H268 H 0.30579 0.05466 0.03490 0.00000
H269 H 0.28613 0.09923 0.03274 0.00000
C270 C 0.27153 0.05306 0.00278 0.00000
C271 C 0.26767 0.00209 0.99454 0.00000
C272 C 0.23171 0.97113 0.97575 0.00000
C273 C 0.20099 0.99235 0.96293 0.00000
C274 C 0.20381 0.04081 0.97153 0.00000
C275 C 0.23862 0.07254 0.99065 0.00000
C276 C 0.23664 0.12425 0.99886 0.00000
C277 C 0.16415 0.96340 0.94167 0.00000
C278 C 0.22112 0.91245 0.96758 0.00000
C279 C 0.30952 0.98510 0.00538 0.00000
C280 C 0.30619 0.08328 0.02429 0.00000
H281 H 0.05739 0.86826 0.62776 0.00000
H282 H 0.13185 0.91644 0.65309 0.00000
H283 H 0.16012 0.88083 0.66084 0.00000
H284 H 0.12463 0.89351 0.67974 0.00000
H285 H 0.92778 0.78320 0.60974 0.00000
H286 H 0.96776 0.77181 0.59307 0.00000
H287 H 0.98593 0.83399 0.60105 0.00000
H288 H 0.90656 0.69473 0.61715 0.00000
H289 H 0.91066 0.65374 0.63602 0.00000
H290 H 0.95155 0.66630 0.68396 0.00000
H291 H 0.01414 0.67809 0.68277 0.00000
H292 H 0.97235 0.64709 0.66115 0.00000
H293 H 0.05431 0.75119 0.70184 0.00000
H294 H 0.10044 0.81460 0.69852 0.00000
C295 C 0.05390 0.78072 0.66882 0.00000
C296 C 0.00213 0.73375 0.66119 0.00000
C297 C 0.97192 0.73779 0.64185 0.00000
C298 C 0.99466 0.78832 0.62789 0.00000
C299 C 0.04391 0.83393 0.63589 0.00000
C300 C 0.07495 0.83185 0.65552 0.00000
C301 C 0.12771 0.88549 0.66296 0.00000
C302 C 0.96652 0.79495 0.60602 0.00000
C303 C 0.91254 0.69012 0.63419 0.00000
C304 C 0.98327 0.67581 0.67342 0.00000
C305 C 0.08342 0.77760 0.69087 0.00000
H306 H 0.70579 0.41267 0.99140 0.00000
H307 H 0.79011 0.41537 0.98956 0.00000
H308 H 0.78774 0.36690 0.97331 0.00000
H309 H 0.79299 0.36472 0.00165 0.00000
H310 H 0.57819 0.37734 0.00933 0.00000
H311 H 0.57757 0.37737 0.98084 0.00000
H312 H 0.63035 0.42426 0.99498 0.00000
H313 H 0.51962 0.28851 0.99822 0.00000
H314 H 0.51092 0.22712 0.99650 0.00000
H315 H 0.57471 0.17680 0.01142 0.00000
H316 H 0.61088 0.17703 0.98918 0.00000
H317 H 0.55547 0.18009 0.98487 0.00000
H318 H 0.68930 0.21745 0.00397 0.00000
H319 H 0.74754 0.27275 0.00010 0.00000
C320 C 0.68195 0.28314 0.99298 0.00000
C321 C 0.62270 0.25708 0.99641 0.00000
C322 C 0.59599 0.28882 0.99825 0.00000
C323 C 0.62708 0.34846 0.99477 0.00000
C324 C 0.68457 0.37330 0.99219 0.00000
C325 C 0.71310 0.34295 0.99072 0.00000
C326 C 0.77675 0.37541 0.98859 0.00000
C327 C 0.60101 0.38512 0.99503 0.00000
C328 C 0.53266 0.26363 0.00447 0.00000
C329 C 0.58762 0.19153 0.99536 0.00000
C330 C 0.71095 0.24936 0.99323 0.00000
H331 H 0.31931 0.62410 0.26864 0.00000
H332 H 0.39075 0.71337 0.26152 0.00000
H333 H 0.44967 0.72305 0.27043 0.00000
H334 H 0.41981 0.75135 0.28436 0.00000
H335 H 0.21783 0.51632 0.29730 0.00000
H336 H 0.25358 0.49406 0.28374 0.00000
H337 H 0.24130 0.53860 0.27117 0.00000
H338 H 0.25616 0.48903 0.32597 0.00000
H339 H 0.30195 0.50935 0.34661 0.00000
H340 H 0.37865 0.61577 0.36683 0.00000
H341 H 0.43740 0.63830 0.35386 0.00000
H342 H 0.39349 0.57301 0.35427 0.00000
H343 H 0.45136 0.71459 0.34219 0.00000
H344 H 0.45869 0.74777 0.31819 0.00000
C345 C 0.40462 0.66495 0.31504 0.00000
C346 C 0.37176 0.61609 0.32929 0.00000
C347 C 0.32048 0.57224 0.32104 0.00000
C348 C 0.30171 0.57330 0.29710 0.00000
C349 C 0.33302 0.62150 0.28378 0.00000
C350 C 0.38422 0.66691 0.29161 0.00000
C351 C 0.41385 0.71831 0.27551 0.00000
C352 C 0.24890 0.52646 0.28639 0.00000
C353 C 0.27988 0.52060 0.33660 0.00000
C354 C 0.39781 0.61024 0.35334 0.00000
C355 C 0.45688 0.71391 0.32482 0.00000
H356 H 0.44829 0.91269 0.00877 0.00000
H357 H 0.37444 0.91567 0.99150 0.00000
H358 H 0.31557 0.86674 0.00010 0.00000
H359 H 0.33580 0.86554 0.97402 0.00000
H360 H 0.54509 0.87754 0.01771 0.00000
H361 H 0.51860 0.87659 0.04313 0.00000
H362 H 0.52936 0.92407 0.02419 0.00000
H363 H 0.50293 0.78827 0.03024 0.00000
H364 H 0.45133 0.72692 0.02637 0.00000
H365 H 0.36179 0.67748 0.99253 0.00000
H366 H 0.30884 0.67710 0.00404 0.00000
H367 H 0.35666 0.67978 0.02087 0.00000
H368 H 0.29145 0.71825 0.97790 0.00000
H369 H 0.28889 0.77356 0.97403 0.00000
C370 C 0.34922 0.78339 0.99722 0.00000
C371 C 0.38045 0.75727 0.00456 0.00000
C372 C 0.43565 0.78890 0.01284 0.00000
C373 C 0.46086 0.84842 0.01600 0.00000
C374 C 0.43084 0.87335 0.00817 0.00000
C375 C 0.37568 0.84313 0.99990 0.00000
C376 C 0.34780 0.87570 0.99060 0.00000
C377 C 0.51861 0.88490 0.02613 0.00000
C378 C 0.47396 0.76372 0.01873 0.00000
C379 C 0.34893 0.69169 0.00561 0.00000
C380 C 0.29205 0.74982 0.98633 0.00000
H381 H 0.62867 0.31600 0.39676 0.00000
H382 H 0.71796 0.38778 0.40351 0.00000
H383 H 0.72638 0.44691 0.39567 0.00000
H384 H 0.75444 0.41850 0.38051 0.00000
H385 H 0.51987 0.21537 0.36826 0.00000
H386 H 0.49780 0.24973 0.38304 0.00000
H387 H 0.54352 0.23748 0.39438 0.00000
H388 H 0.49020 0.25466 0.34103 0.00000
H389 H 0.50881 0.30158 0.32097 0.00000
H390 H 0.61369 0.38042 0.30015 0.00000
H391 H 0.63633 0.43831 0.31388 0.00000
H392 H 0.57119 0.39379 0.31393 0.00000
H393 H 0.71361 0.45260 0.32421 0.00000
H394 H 0.74832 0.45898 0.34763 0.00000
C395 C 0.66589 0.40393 0.35139 0.00000
C396 C 0.61632 0.37142 0.33749 0.00000
C397 C 0.57336 0.31942 0.34556 0.00000
C398 C 0.57610 0.29942 0.36904 0.00000
C399 C 0.62497 0.33044 0.38200 0.00000
C400 C 0.66952 0.38236 0.37430 0.00000
C401 C 0.72180 0.41158 0.38992 0.00000
C402 C 0.53031 0.24572 0.37961 0.00000
C403 C 0.52103 0.27927 0.33025 0.00000
C404 C 0.60866 0.39858 0.31415 0.00000
C405 C 0.71388 0.45707 0.34169 0.00000
H406 H 0.68830 0.31640 0.60307 0.00000
H407 H 0.67076 0.38814 0.59628 0.00000
H408 H 0.72128 0.44725 0.60426 0.00000
H409 H 0.66460 0.41865 0.61926 0.00000
H410 H 0.69623 0.21566 0.63159 0.00000
H411 H 0.75287 0.25019 0.61696 0.00000
H412 H 0.69504 0.23794 0.60547 0.00000
H413 H 0.76478 0.25483 0.65900 0.00000
H414 H 0.79274 0.30160 0.67915 0.00000
H415 H 0.76625 0.38018 0.69990 0.00000
H416 H 0.80162 0.43818 0.68626 0.00000
H417 H 0.82234 0.39374 0.68627 0.00000
H418 H 0.73871 0.45243 0.67576 0.00000
H419 H 0.71069 0.45894 0.65226 0.00000
C420 C 0.73824 0.40400 0.64858 0.00000
C421 C 0.75517 0.37145 0.66253 0.00000
C422 C 0.74632 0.31953 0.65443 0.00000
C423 C 0.72395 0.29969 0.63089 0.00000
C424 C 0.70621 0.33074 0.61788 0.00000
C425 C 0.71339 0.38258 0.62560 0.00000
C426 C 0.69050 0.41186 0.60992 0.00000
C427 C 0.71628 0.24610 0.62030 0.00000
C428 C 0.75836 0.27933 0.66977 0.00000
C429 C 0.78962 0.39847 0.68596 0.00000
C430 C 0.74316 0.45704 0.65830 0.00000
H431 H 0.11194 0.57075 0.62931 0.00000
H432 H 0.12172 0.49979 0.61308 0.00000
H433 H 0.13931 0.46913 0.63243 0.00000
H434 H 0.18316 0.50846 0.61274 0.00000
H435 H 0.14586 0.69685 0.64886 0.00000
H436 H 0.10447 0.65321 0.66807 0.00000
H437 H 0.09398 0.63939 0.64023 0.00000
H438 H 0.19568 0.71366 0.68274 0.00000
H439 H 0.24428 0.70868 0.69576 0.00000
H440 H 0.32019 0.67229 0.68117 0.00000
H441 H 0.29411 0.60845 0.68874 0.00000
H442 H 0.27554 0.64726 0.70230 0.00000
H443 H 0.29461 0.57382 0.65635 0.00000
H444 H 0.25290 0.53012 0.63758 0.00000
C445 C 0.22110 0.57280 0.65438 0.00000
C446 C 0.23802 0.62228 0.66833 0.00000
C447 C 0.20881 0.65168 0.66726 0.00000
C448 C 0.15809 0.63015 0.65350 0.00000
C449 C 0.14312 0.58322 0.63954 0.00000
C450 C 0.17200 0.55311 0.63977 0.00000
C451 C 0.15223 0.50304 0.62301 0.00000
C452 C 0.12248 0.65733 0.65256 0.00000
C453 C 0.22833 0.70895 0.68002 0.00000
C454 C 0.28656 0.63915 0.68690 0.00000
C455 C 0.25548 0.54444 0.65393 0.00000
H456 H 0.76958 0.02919 0.84460 0.00000
H457 H 0.80247 0.04814 0.88316 0.00000
H458 H 0.78546 0.08815 0.89669 0.00000
H459 H 0.84876 0.11099 0.88889 0.00000
H460 H 0.76388 0.04396 0.78610 0.00000
H461 H 0.70319 0.02460 0.79643 0.00000
H462 H 0.73892 0.99862 0.80690 0.00000
H463 H 0.74802 0.11505 0.77927 0.00000
H464 H 0.76391 0.17686 0.78679 0.00000
H465 H 0.84339 0.25791 0.81911 0.00000
H466 H 0.81236 0.25260 0.84382 0.00000
H467 H 0.77719 0.23129 0.81969 0.00000
H468 H 0.86344 0.24097 0.86685 0.00000
H469 H 0.86184 0.19594 0.88474 0.00000
C470 C 0.81175 0.16164 0.85601 0.00000
C471 C 0.80240 0.17547 0.83238 0.00000
C472 C 0.78219 0.13561 0.81394 0.00000
C473 C 0.76598 0.07828 0.81886 0.00000
C474 C 0.77679 0.06583 0.84159 0.00000
C475 C 0.79806 0.10496 0.86047 0.00000
C476 C 0.80968 0.08638 0.88449 0.00000
C477 C 0.74083 0.03230 0.80044 0.00000
C478 C 0.77661 0.14929 0.78726 0.00000
C479 C 0.80950 0.23496 0.82838 0.00000
C480 C 0.83817 0.20569 0.87507 0.00000
H481 H 0.61301 0.66683 0.17796 0.00000
H482 H 0.59428 0.64330 0.13830 0.00000
H483 H 0.63454 0.69290 0.12092 0.00000
H484 H 0.57038 0.67569 0.12327 0.00000
H485 H 0.61003 0.71812 0.23108 0.00000
H486 H 0.67342 0.73592 0.22581 0.00000
H487 H 0.62445 0.67544 0.21827 0.00000
H488 H 0.65689 0.81194 0.22871 0.00000
H489 H 0.66756 0.86460 0.21310 0.00000
H490 H 0.62101 0.87871 0.16972 0.00000
H491 H 0.66067 0.88266 0.14822 0.00000
H492 H 0.68488 0.89766 0.17473 0.00000
H493 H 0.60384 0.82012 0.12654 0.00000
H494 H 0.59106 0.76212 0.11568 0.00000
C495 C 0.62538 0.77617 0.14867 0.00000
C496 C 0.63558 0.81077 0.16932 0.00000
C497 C 0.63634 0.79129 0.19244 0.00000
C498 C 0.63134 0.73728 0.19581 0.00000
C499 C 0.61983 0.70360 0.17578 0.00000
C500 C 0.61767 0.72126 0.15230 0.00000
C501 C 0.60295 0.67954 0.13183 0.00000
C502 C 0.63507 0.71466 0.21987 0.00000
C503 C 0.64136 0.82455 0.21585 0.00000
C504 C 0.65212 0.87339 0.16509 0.00000
C505 C 0.61954 0.79539 0.12422 0.00000
H506 H 0.76205 0.73445 0.48832 0.00000
H507 H 0.79464 0.74898 0.44970 0.00000
H508 H 0.78019 0.69237 0.43639 0.00000
H509 H 0.84301 0.73533 0.44402 0.00000
H510 H 0.75794 0.71549 0.54689 0.00000
H511 H 0.69782 0.67179 0.53673 0.00000
H512 H 0.73097 0.73346 0.52602 0.00000
H513 H 0.74653 0.63031 0.55405 0.00000
H514 H 0.76531 0.58643 0.54671 0.00000
H515 H 0.84664 0.58861 0.51438 0.00000
H516 H 0.81594 0.56139 0.48977 0.00000
H517 H 0.78087 0.54651 0.51396 0.00000
H518 H 0.86468 0.62463 0.46650 0.00000
H519 H 0.86045 0.66634 0.44844 0.00000
C520 C 0.81021 0.64885 0.47724 0.00000
C521 C 0.80213 0.62632 0.50096 0.00000
C522 C 0.78050 0.64468 0.51932 0.00000
C523 C 0.76153 0.68361 0.51426 0.00000
C524 C 0.77111 0.70633 0.49143 0.00000
C525 C 0.79373 0.68976 0.47262 0.00000
C526 C 0.80374 0.71922 0.44848 0.00000
C527 C 0.73476 0.70284 0.53260 0.00000
C528 C 0.77611 0.62623 0.54608 0.00000
C529 C 0.81235 0.57591 0.50516 0.00000
C530 C 0.83810 0.63278 0.45824 0.00000
H531 H 0.29660 0.53235 0.49534 0.00000
H532 H 0.29518 0.52861 0.45430 0.00000
H533 H 0.23351 0.49344 0.44382 0.00000
H534 H 0.27496 0.46904 0.44254 0.00000
H535 H 0.29800 0.49555 0.55155 0.00000
H536 H 0.25465 0.51748 0.55007 0.00000
H537 H 0.31149 0.54804 0.53525 0.00000
H538 H 0.21385 0.42177 0.56022 0.00000
H539 H 0.16450 0.36328 0.55094 0.00000
H540 H 0.14837 0.29623 0.50944 0.00000
H541 H 0.11437 0.31017 0.49029 0.00000
H542 H 0.11058 0.32163 0.51797 0.00000
H543 H 0.16707 0.33146 0.46146 0.00000
H544 H 0.20403 0.38305 0.44471 0.00000
C545 C 0.20047 0.40543 0.47879 0.00000
C546 C 0.18631 0.38258 0.50246 0.00000
C547 C 0.21351 0.41498 0.52269 0.00000
C548 C 0.25343 0.47366 0.52023 0.00000
C549 C 0.26797 0.49483 0.49721 0.00000
C550 C 0.24236 0.46335 0.47642 0.00000
C551 C 0.26335 0.49113 0.45206 0.00000
C552 C 0.28197 0.51208 0.54112 0.00000
C553 C 0.20430 0.39121 0.54874 0.00000
C554 C 0.13503 0.32190 0.50530 0.00000
C555 C 0.17486 0.36921 0.45712 0.00000
H556 H 0.39951 0.33673 0.18133 0.00000
H557 H 0.38107 0.31532 0.22118 0.00000
H558 H 0.40971 0.28183 0.23131 0.00000
H559 H 0.34363 0.25088 0.22775 0.00000
H560 H 0.38738 0.32258 0.12250 0.00000
H561 H 0.45211 0.35002 0.12862 0.00000
H562 H 0.41417 0.36841 0.14304 0.00000
H563 H 0.41238 0.26001 0.11122 0.00000
H564 H 0.40747 0.20132 0.11711 0.00000
H565 H 0.34699 0.11579 0.15179 0.00000
H566 H 0.38754 0.12616 0.17385 0.00000
H567 H 0.41306 0.15047 0.14815 0.00000
H568 H 0.33991 0.12939 0.20127 0.00000
H569 H 0.34109 0.17121 0.22085 0.00000
C570 C 0.37881 0.20958 0.18998 0.00000
C571 C 0.38252 0.19779 0.16528 0.00000
C572 C 0.39147 0.23683 0.14727 0.00000
C573 C 0.40170 0.29180 0.15341 0.00000
C574 C 0.39634 0.30208 0.17728 0.00000
C575 C 0.38632 0.26356 0.19586 0.00000
C576 C 0.37964 0.27934 0.22134 0.00000
C577 C 0.41495 0.33720 0.13529 0.00000
C578 C 0.39011 0.22450 0.11988 0.00000
C579 C 0.38255 0.14229 0.15920 0.00000
C580 C 0.36416 0.16576 0.20893 0.00000
H581 H 0.16108 0.94100 0.83994 0.00000
H582 H 0.12750 0.91478 0.87813 0.00000
H583 H 0.16427 0.89679 0.89362 0.00000
H584 H 0.10346 0.85080 0.88486 0.00000
H585 H 0.18197 0.93045 0.78235 0.00000
H586 H 0.24112 0.97300 0.79371 0.00000
H587 H 0.18651 0.97400 0.80211 0.00000
H588 H 0.23472 0.88987 0.77869 0.00000
H589 H 0.24484 0.84120 0.78805 0.00000
H590 H 0.18802 0.75068 0.82099 0.00000
H591 H 0.21800 0.77047 0.84633 0.00000
H592 H 0.25127 0.80019 0.82250 0.00000
H593 H 0.15099 0.75522 0.86735 0.00000
H594 H 0.12923 0.78726 0.88353 0.00000
C595 C 0.17405 0.83256 0.85507 0.00000
C596 C 0.19430 0.82638 0.83231 0.00000
C597 C 0.20091 0.86174 0.81303 0.00000
C598 C 0.19172 0.90826 0.81624 0.00000
C599 C 0.17055 0.91277 0.83811 0.00000
C600 C 0.16233 0.87742 0.85778 0.00000
C601 C 0.13717 0.88573 0.88069 0.00000
C602 C 0.20110 0.95010 0.79688 0.00000
C603 C 0.21715 0.85368 0.78711 0.00000
C604 C 0.21486 0.78280 0.83035 0.00000
C605 C 0.16222 0.79145 0.87496 0.00000
H606 H 0.01709 0.49467 0.88655 0.00000
H607 H 0.98161 0.39976 0.88749 0.00000
H608 H 0.92783 0.36843 0.90412 0.00000
H609 H 0.98560 0.37380 0.91233 0.00000
H610 H 0.09042 0.62770 0.90232 0.00000
H611 H 0.02967 0.61583 0.89514 0.00000
H612 H 0.05874 0.58820 0.88019 0.00000
H613 H 0.05286 0.64001 0.93585 0.00000
H614 H 0.02734 0.61513 0.96147 0.00000
H615 H 0.01394 0.52156 0.98872 0.00000
H616 H 0.95240 0.47085 0.98414 0.00000
H617 H 0.96587 0.53344 0.98007 0.00000
H618 H 0.97028 0.41085 0.97290 0.00000
H619 H 0.96377 0.37407 0.95018 0.00000
C620 C 0.97656 0.45069 0.94176 0.00000
C621 C 0.99615 0.50495 0.95199 0.00000
C622 C 0.02346 0.55362 0.93803 0.00000
C623 C 0.02846 0.54986 0.91253 0.00000
C624 C 0.01086 0.49728 0.90298 0.00000
C625 C 0.98419 0.44749 0.91649 0.00000
C626 C 0.96830 0.39236 0.90397 0.00000
C627 C 0.05415 0.59982 0.89609 0.00000
C628 C 0.05098 0.61422 0.94847 0.00000
C629 C 0.98060 0.50798 0.97877 0.00000
C630 C 0.95198 0.39922 0.95718 0.00000
H631 H 0.51539 0.01046 0.35932 0.00000
H632 H 0.54159 0.94366 0.36025 0.00000
H633 H 0.58553 0.95246 0.33988 0.00000
H634 H 0.52287 0.90178 0.33816 0.00000
H635 H 0.44624 0.07489 0.34408 0.00000
H636 H 0.51079 0.12106 0.34486 0.00000
H637 H 0.48533 0.07269 0.36445 0.00000
H638 H 0.46989 0.10663 0.30641 0.00000
H639 H 0.48118 0.09235 0.28011 0.00000
H640 H 0.47219 0.99491 0.25789 0.00000
H641 H 0.53232 0.00010 0.25846 0.00000
H642 H 0.52689 0.05491 0.26008 0.00000
H643 H 0.51323 0.92673 0.27517 0.00000
H644 H 0.52707 0.90473 0.29882 0.00000
C645 C 0.52587 0.97656 0.30371 0.00000
C646 C 0.50642 0.01050 0.29262 0.00000
C647 C 0.49012 0.04258 0.30629 0.00000
C648 C 0.49689 0.04569 0.33191 0.00000
C649 C 0.51414 0.01139 0.34246 0.00000
C650 C 0.52987 0.97775 0.32936 0.00000
C651 C 0.54654 0.94059 0.34316 0.00000
C652 C 0.48358 0.08172 0.34773 0.00000
C653 C 0.46310 0.07581 0.29551 0.00000
C654 C 0.50979 0.01563 0.26460 0.00000
C655 C 0.53837 0.93842 0.28910 0.00000
H656 H 0.42429 0.49969 0.10342 0.00000
H657 H 0.48104 0.59445 0.10785 0.00000
H658 H 0.48980 0.62756 0.08344 0.00000
H659 H 0.53994 0.62208 0.09464 0.00000
H660 H 0.38555 0.36786 0.09166 0.00000
H661 H 0.34019 0.37992 0.07985 0.00000
H662 H 0.36613 0.40579 0.10533 0.00000
H663 H 0.39140 0.35875 0.05194 0.00000
H664 H 0.42804 0.38577 0.02855 0.00000
H665 H 0.53567 0.48094 0.01968 0.00000
H666 H 0.52690 0.53176 0.01237 0.00000
H667 H 0.47731 0.46913 0.00892 0.00000
H668 H 0.57745 0.59019 0.03705 0.00000
H669 H 0.57396 0.62504 0.05871 0.00000
C670 C 0.50584 0.54816 0.05594 0.00000
C671 C 0.48732 0.49482 0.04496 0.00000
C672 C 0.44704 0.44507 0.05588 0.00000
C673 C 0.41988 0.44677 0.07761 0.00000
C674 C 0.43935 0.49845 0.08842 0.00000
C675 C 0.48050 0.54928 0.07824 0.00000
C676 C 0.49951 0.60325 0.09230 0.00000
C677 C 0.37392 0.39556 0.08970 0.00000
C678 C 0.42930 0.38535 0.04617 0.00000
C679 C 0.50884 0.49411 0.01902 0.00000
C680 C 0.55258 0.60077 0.04525 0.00000
H681 H 0.00848 0.51328 0.30726 0.00000
H682 H 0.94165 0.53946 0.30644 0.00000
H683 H 0.95103 0.58401 0.32662 0.00000
H684 H 0.90040 0.52141 0.32874 0.00000
H685 H 0.07334 0.44460 0.32256 0.00000
H686 H 0.11948 0.50912 0.32138 0.00000
H687 H 0.07056 0.48308 0.30205 0.00000
H688 H 0.10614 0.46938 0.36003 0.00000
H689 H 0.09261 0.48146 0.38633 0.00000
H690 H 0.99580 0.47314 0.40890 0.00000
H691 H 0.00113 0.53326 0.40807 0.00000
H692 H 0.05574 0.52777 0.40631 0.00000
H693 H 0.92714 0.51366 0.39168 0.00000
H694 H 0.90446 0.52679 0.36805 0.00000
C695 C 0.97615 0.52544 0.36293 0.00000
C696 C 0.01041 0.50632 0.37399 0.00000
C697 C 0.04210 0.48962 0.36028 0.00000
C698 C 0.04449 0.49561 0.33463 0.00000
C699 C 0.00989 0.51255 0.32412 0.00000
C700 C 0.97662 0.52867 0.33726 0.00000
C701 C 0.93906 0.54493 0.32353 0.00000
C702 C 0.08006 0.48182 0.31874 0.00000
C703 C 0.07563 0.46291 0.37105 0.00000
C704 C 0.01634 0.51054 0.40197 0.00000
C705 C 0.93843 0.53838 0.37762 0.00000
H706 H 0.50277 0.02477 0.64132 0.00000
H707 H 0.59578 0.09151 0.64245 0.00000
H708 H 0.63148 0.07344 0.65865 0.00000
H709 H 0.61968 0.12146 0.66749 0.00000
H710 H 0.36968 0.95251 0.65711 0.00000
H711 H 0.38792 0.90851 0.64931 0.00000
H712 H 0.41031 0.96549 0.63486 0.00000
H713 H 0.36268 0.90288 0.69012 0.00000
H714 H 0.38904 0.90405 0.71559 0.00000
H715 H 0.47828 0.98885 0.74327 0.00000
H716 H 0.53297 0.98489 0.73830 0.00000
H717 H 0.47279 0.93174 0.73399 0.00000
H718 H 0.58698 0.06534 0.72764 0.00000
H719 H 0.62211 0.09904 0.70508 0.00000
C720 C 0.54887 0.03067 0.69633 0.00000
C721 C 0.49581 0.99137 0.70645 0.00000
C722 C 0.44700 0.96628 0.69250 0.00000
C723 C 0.44986 0.97608 0.66709 0.00000
C724 C 0.50111 0.01543 0.65767 0.00000
C725 C 0.55089 0.04233 0.67118 0.00000
C726 C 0.60433 0.08611 0.65882 0.00000
C727 C 0.40003 0.94824 0.65064 0.00000
C728 C 0.38708 0.92771 0.70288 0.00000
C729 C 0.49489 0.97241 0.73302 0.00000
C730 C 0.59998 0.06119 0.71179 0.00000
H731 H 0.49309 0.45013 0.68906 0.00000
H732 H 0.40003 0.42298 0.69188 0.00000
H733 H 0.36553 0.39004 0.66880 0.00000
H734 H 0.37745 0.45184 0.67390 0.00000
H735 H 0.62709 0.52662 0.67525 0.00000
H736 H 0.60878 0.46337 0.66935 0.00000
H737 H 0.58524 0.47798 0.69262 0.00000
H738 H 0.63630 0.52259 0.63544 0.00000
H739 H 0.61149 0.52441 0.60995 0.00000
H740 H 0.52359 0.54300 0.59421 0.00000
H741 H 0.46885 0.48364 0.59061 0.00000
H742 H 0.52893 0.48892 0.58957 0.00000
H743 H 0.41386 0.49309 0.61203 0.00000
H744 H 0.37734 0.46737 0.63528 0.00000
C745 C 0.45029 0.46710 0.63623 0.00000
C746 C 0.50400 0.49222 0.62489 0.00000
C747 C 0.55199 0.50187 0.63748 0.00000
C748 C 0.54762 0.48248 0.66174 0.00000
C749 C 0.49575 0.45978 0.67272 0.00000
C750 C 0.44674 0.45038 0.66081 0.00000
C751 C 0.39250 0.42659 0.67513 0.00000
C752 C 0.59651 0.48817 0.67602 0.00000
C753 C 0.61256 0.53428 0.62696 0.00000
C754 C 0.50657 0.50294 0.59719 0.00000
C755 C 0.40004 0.46156 0.62330 0.00000
loop_
_geom_bond_atom_site_label_1
_geom_bond_atom_site_label_2
_geom_bond_distance
_geom_bond_site_symmetry_2
_ccdc_geom_bond_type
O0 In4 2.242 . S
O0 C8 1.247 . A
O1 In4 2.259 . S
O1 C8 1.260 . A
O2 In4 2.300 . S
O2 C11 1.245 . A
O3 In4 2.234 . S
O3 C11 1.251 . A
In4 O6 2.242 . S
In4 O7 2.285 . S
In4 O9 2.397 . S
In4 O10 2.185 . S
C5 O9 1.269 . A
C5 O10 1.254 . A
O6 C12 1.251 . A
O7 C12 1.256 . A
O13 In17 2.242 . S
O13 C21 1.247 . A
O14 In17 2.259 . S
O14 C21 1.260 . A
O15 In17 2.300 . S
O15 C24 1.245 . A
O16 In17 2.234 . S
O16 C24 1.251 . A
In17 O19 2.242 . S
In17 O20 2.285 . S
In17 O22 2.397 . S
In17 O23 2.185 . S
C18 O22 1.269 . A
C18 O23 1.254 . A
O19 C25 1.251 . A
O20 C25 1.256 . A
O26 In30 2.242 . S
O26 C34 1.247 . A
O27 In30 2.259 . S
O27 C34 1.260 . A
O28 In30 2.300 . S
O28 C37 1.245 . A
O29 In30 2.234 . S
O29 C37 1.251 . A
In30 O32 2.242 . S
In30 O33 2.285 . S
In30 O35 2.397 . S
In30 O36 2.185 . S
C31 O35 1.269 . A
C31 O36 1.254 . A
O32 C38 1.251 . A
O33 C38 1.256 . A
O39 In43 2.242 . S
O39 C47 1.247 . A
O40 In43 2.259 . S
O40 C47 1.260 . A
O41 In43 2.300 . S
O41 C50 1.245 . A
O42 In43 2.234 . S
O42 C50 1.251 . A
In43 O45 2.242 . S
In43 O46 2.285 . S
In43 O48 2.397 . S
In43 O49 2.185 . S
C44 O48 1.269 . A
C44 O49 1.254 . A
O45 C51 1.251 . A
O46 C51 1.256 . A
O52 In56 2.242 . S
O52 C60 1.247 . A
O53 In56 2.259 . S
O53 C60 1.260 . A
O54 In56 2.300 . S
O54 C63 1.245 . A
O55 In56 2.234 . S
O55 C63 1.251 . A
In56 O58 2.242 . S
In56 O59 2.285 . S
In56 O61 2.397 . S
In56 O62 2.185 . S
C57 O61 1.269 . A
C57 O62 1.254 . A
O58 C64 1.251 . A
O59 C64 1.256 . A
O65 In69 2.242 . S
O65 C73 1.247 . A
O66 In69 2.259 . S
O66 C73 1.260 . A
O67 In69 2.300 . S
O67 C76 1.245 . A
O68 In69 2.234 . S
O68 C76 1.251 . A
In69 O71 2.242 . S
In69 O72 2.285 . S
In69 O74 2.397 . S
In69 O75 2.185 . S
C70 O74 1.269 . A
C70 O75 1.254 . A
O71 C77 1.251 . A
O72 C77 1.256 . A
O78 In82 2.242 . S
O78 C86 1.247 . A
O79 In82 2.259 . S
O79 C86 1.260 . A
O80 In82 2.300 . S
O80 C89 1.245 . A
O81 In82 2.234 . S
O81 C89 1.251 . A
In82 O84 2.242 . S
In82 O85 2.285 . S
In82 O87 2.397 . S
In82 O88 2.185 . S
C83 O87 1.269 . A
C83 O88 1.254 . A
O84 C90 1.251 . A
O85 C90 1.256 . A
O91 In95 2.242 . S
O91 C99 1.247 . A
O92 In95 2.259 . S
O92 C99 1.260 . A
O93 In95 2.300 . S
O93 C102 1.245 . A
O94 In95 2.234 . S
O94 C102 1.251 . A
In95 O97 2.242 . S
In95 O98 2.285 . S
In95 O100 2.397 . S
In95 O101 2.185 . S
C96 O100 1.269 . A
C96 O101 1.254 . A
O97 C103 1.251 . A
O98 C103 1.256 . A
O104 In108 2.242 . S
O104 C112 1.247 . A
O105 In108 2.259 . S
O105 C112 1.260 . A
O106 In108 2.300 . S
O106 C115 1.245 . A
O107 In108 2.234 . S
O107 C115 1.251 . A
In108 O110 2.242 . S
In108 O111 2.285 . S
In108 O113 2.397 . S
In108 O114 2.185 . S
C109 O113 1.269 . A
C109 O114 1.254 . A
O110 C116 1.251 . A
O111 C116 1.256 . A
O117 In121 2.242 . S
O117 C125 1.247 . A
O118 In121 2.259 . S
O118 C125 1.260 . A
O119 In121 2.300 . S
O119 C128 1.245 . A
O120 In121 2.234 . S
O120 C128 1.251 . A
In121 O123 2.242 . S
In121 O124 2.285 . S
In121 O126 2.397 . S
In121 O127 2.185 . S
C122 O126 1.269 . A
C122 O127 1.254 . A
O123 C129 1.251 . A
O124 C129 1.256 . A
O130 In134 2.242 . S
O130 C138 1.247 . A
O131 In134 2.259 . S
O131 C138 1.260 . A
O132 In134 2.300 . S
O132 C141 1.245 . A
O133 In134 2.234 . S
O133 C141 1.251 . A
In134 O136 2.242 . S
In134 O137 2.285 . S
In134 O139 2.397 . S
In134 O140 2.185 . S
C135 O139 1.269 . A
C135 O140 1.254 . A
O136 C142 1.251 . A
O137 C142 1.256 . A
O143 In147 2.242 . S
O143 C151 1.247 . A
O144 In147 2.259 . S
O144 C151 1.260 . A
O145 In147 2.300 . S
O145 C154 1.245 . A
O146 In147 2.234 . S
O146 C154 1.251 . A
In147 O149 2.242 . S
In147 O150 2.285 . S
In147 O152 2.397 . S
In147 O153 2.185 . S
C148 O152 1.269 . A
C148 O153 1.254 . A
O149 C155 1.251 . A
O150 C155 1.256 . A
H156 C174 0.930 . S
H157 C176 0.960 . S
H158 C176 0.959 . S
H159 C176 0.962 . S
H160 C177 0.958 . S
H161 C177 0.962 . S
H162 C177 0.968 . S
H163 C178 0.970 . S
H164 C178 0.970 . S
H165 C179 0.961 . S
H166 C179 0.960 . S
H167 C179 0.961 . S
H168 C180 0.969 . S
H169 C180 0.969 . S
C170 C171 1.413 1_565 A
C170 C175 1.429 . A
C170 C180 1.467 1_556 S
C171 C172 1.383 . A
C171 C179 1.547 1_556 S
C172 C173 1.419 . A
C172 C178 1.541 . S
C173 C174 1.366 1_545 A
C173 C177 1.485 . S
C174 C175 1.390 . A
C175 C176 1.504 . S
H181 C199 0.930 . S
H182 C201 0.960 . S
H183 C201 0.959 . S
H184 C201 0.962 . S
H185 C202 0.958 . S
H186 C202 0.962 . S
H187 C202 0.960 . S
H188 C203 0.970 . S
H189 C203 0.970 . S
H190 C204 0.961 . S
H191 C204 0.960 . S
H192 C204 0.961 . S
H193 C205 0.969 . S
H194 C205 0.969 . S
C195 C196 1.412 . A
C195 C200 1.415 . A
C195 C205 1.481 . S
C196 C197 1.383 . A
C196 C204 1.547 . S
C197 C198 1.419 . A
C197 C203 1.541 . S
C198 C199 1.366 . A
C198 C202 1.485 . S
C199 C200 1.390 . A
C200 C201 1.504 . S
H206 C224 0.930 . S
H207 C226 0.960 . S
H208 C226 0.959 . S
H209 C226 0.962 . S
H210 C227 0.958 . S
H211 C227 0.962 . S
H212 C227 0.960 . S
H213 C228 0.970 . S
H214 C228 0.970 . S
H215 C229 0.961 . S
H216 C229 0.960 . S
H217 C229 0.961 . S
H218 C230 0.969 . S
H219 C230 0.969 . S
C220 C221 1.412 . A
C220 C225 1.415 . A
C220 C230 1.481 . S
C221 C222 1.383 . A
C221 C229 1.547 . S
C222 C223 1.419 . A
C222 C228 1.541 . S
C223 C224 1.366 . A
C223 C227 1.485 . S
C224 C225 1.390 . A
C225 C226 1.504 . S
H231 C249 0.930 . S
H232 C251 0.960 . S
H233 C251 0.959 . S
H234 C251 0.962 . S
H235 C252 0.958 . S
H236 C252 0.962 . S
H237 C252 0.960 . S
H238 C253 0.970 . S
H239 C253 0.970 . S
H240 C254 0.961 . S
H241 C254 0.960 1_655 S
H242 C254 0.961 . S
H243 C255 0.969 . S
H244 C255 0.969 . S
C245 C246 1.412 . A
C245 C250 1.415 . A
C245 C255 1.481 . S
C246 C247 1.383 1_655 A
C246 C254 1.547 1_655 S
C247 C248 1.419 . A
C247 C253 1.541 . S
C248 C249 1.366 1_455 A
C248 C252 1.485 . S
C249 C250 1.390 . A
C250 C251 1.504 . S
H256 C274 0.930 . S
H257 C276 0.960 . S
H258 C276 0.959 . S
H259 C276 0.962 1_554 S
H260 C277 0.958 . S
H261 C277 0.962 . S
H262 C277 0.960 . S
H263 C278 0.970 . S
H264 C278 0.970 . S
H265 C279 0.961 . S
H266 C279 0.960 1_545 S
H267 C279 0.961 1_556 S
H268 C280 0.969 . S
H269 C280 0.969 . S
C270 C271 1.412 1_554 A
C270 C275 1.415 1_554 A
C270 C280 1.481 . S
C271 C272 1.383 1_545 A
C271 C279 1.547 1_546 S
C272 C273 1.419 . A
C272 C278 1.541 . S
C273 C274 1.366 1_565 A
C273 C277 1.485 . S
C274 C275 1.390 . A
C275 C276 1.504 . S
H281 C299 0.930 . S
H282 C301 0.960 . S
H283 C301 0.959 . S
H284 C301 0.962 . S
H285 C302 0.958 . S
H286 C302 0.962 . S
H287 C302 0.960 . S
H288 C303 0.970 . S
H289 C303 0.970 . S
H290 C304 0.961 . S
H291 C304 0.960 1_455 S
H292 C304 0.961 . S
H293 C305 0.969 . S
H294 C305 0.969 . S
C295 C296 1.412 . A
C295 C300 1.415 . A
C295 C305 1.481 . S
C296 C297 1.383 1_455 A
C296 C304 1.547 1_455 S
C297 C298 1.419 . A
C297 C303 1.541 . S
C298 C299 1.366 1_655 A
C298 C302 1.485 . S
C299 C300 1.390 . A
C300 C301 1.504 . S
H306 C324 0.930 . S
H307 C326 0.960 . S
H308 C326 0.959 . S
H309 C326 0.962 1_554 S
H310 C327 0.958 1_554 S
H311 C327 0.962 . S
H312 C327 0.960 . S
H313 C328 0.970 1_556 S
H314 C328 0.970 1_556 S
H315 C329 0.961 1_554 S
H316 C329 0.960 . S
H317 C329 0.961 . S
H318 C330 0.969 1_554 S
H319 C330 0.952 1_554 S
C320 C321 1.412 . A
C320 C325 1.415 . A
C320 C330 1.481 . S
C321 C322 1.383 . A
C321 C329 1.547 . S
C322 C323 1.419 . A
C322 C328 1.541 1_556 S
C323 C324 1.366 . A
C323 C327 1.485 . S
C324 C325 1.390 . A
C325 C326 1.504 . S
H331 C349 0.930 . S
H332 C351 0.960 . S
H333 C351 0.959 . S
H334 C351 0.962 . S
H335 C352 0.958 . S
H336 C352 0.962 . S
H337 C352 0.960 . S
H338 C353 0.970 . S
H339 C353 0.970 . S
H340 C354 0.961 . S
H341 C354 0.960 . S
H342 C354 0.961 . S
H343 C355 0.969 . S
H344 C355 0.969 . S
C345 C346 1.412 . A
C345 C350 1.415 . A
C345 C355 1.481 . S
C346 C347 1.383 . A
C346 C354 1.547 . S
C347 C348 1.419 . A
C347 C353 1.541 . S
C348 C349 1.366 . A
C348 C352 1.485 . S
C349 C350 1.390 . A
C350 C351 1.504 . S
H356 C374 0.930 . S
H357 C376 0.960 . S
H358 C376 0.942 1_554 S
H359 C376 0.962 . S
H360 C377 0.958 . S
H361 C377 0.962 . S
H362 C377 0.960 . S
H363 C378 0.970 . S
H364 C378 0.970 . S
H365 C379 0.961 1_556 S
H366 C379 0.960 . S
H367 C379 0.961 . S
H368 C380 0.969 . S
H369 C380 0.969 . S
C370 C371 1.412 1_556 A
C370 C375 1.418 . A
C370 C380 1.481 . S
C371 C372 1.383 . A
C371 C379 1.547 . S
C372 C373 1.419 . A
C372 C378 1.541 . S
C373 C374 1.366 . A
C373 C377 1.485 . S
C374 C375 1.379 1_554 A
C375 C376 1.515 . S
H381 C399 0.930 . S
H382 C401 0.960 . S
H383 C401 0.959 . S
H384 C401 0.962 . S
H385 C402 0.958 . S
H386 C402 0.962 . S
H387 C402 0.960 . S
H388 C403 0.970 . S
H389 C403 0.970 . S
H390 C404 0.961 . S
H391 C404 0.960 . S
H392 C404 0.961 . S
H393 C405 0.969 . S
H394 C405 0.969 . S
C395 C396 1.412 . A
C395 C400 1.415 . A
C395 C405 1.481 . S
C396 C397 1.383 . A
C396 C404 1.547 . S
C397 C398 1.419 . A
C397 C403 1.541 . S
C398 C399 1.366 . A
C398 C402 1.485 . S
C399 C400 1.390 . A
C400 C401 1.504 . S
H406 C424 0.930 . S
H407 C426 0.960 . S
H408 C426 0.959 . S
H409 C426 0.962 . S
H410 C427 0.958 . S
H411 C427 0.962 . S
H412 C427 0.960 . S
H413 C428 0.970 . S
H414 C428 0.970 . S
H415 C429 0.961 . S
H416 C429 0.960 . S
H417 C429 0.961 . S
H418 C430 0.969 . S
H419 C430 0.969 . S
C420 C421 1.412 . A
C420 C425 1.415 . A
C420 C430 1.481 . S
C421 C422 1.383 . A
C421 C429 1.547 . S
C422 C423 1.419 . A
C422 C428 1.541 . S
C423 C424 1.366 . A
C423 C427 1.485 . S
C424 C425 1.390 . A
C425 C426 1.504 . S
H431 C449 0.930 . S
H432 C451 0.960 . S
H433 C451 0.959 . S
H434 C451 0.962 . S
H435 C452 0.958 . S
H436 C452 0.962 . S
H437 C452 0.960 . S
H438 C453 0.970 . S
H439 C453 0.970 . S
H440 C454 0.961 . S
H441 C454 0.960 . S
H442 C454 0.961 . S
H443 C455 0.969 . S
H444 C455 0.969 . S
C445 C446 1.412 . A
C445 C450 1.415 . A
C445 C455 1.481 . S
C446 C447 1.383 . A
C446 C454 1.547 . S
C447 C448 1.419 . A
C447 C453 1.541 . S
C448 C449 1.366 . A
C448 C452 1.485 . S
C449 C450 1.390 . A
C450 C451 1.504 . S
H456 C474 0.930 . S
H457 C476 0.960 . S
H458 C476 0.959 . S
H459 C476 0.962 . S
H460 C477 0.958 . S
H461 C477 0.962 . S
H462 C477 0.960 1_565 S
H463 C478 0.970 . S
H464 C478 0.970 . S
H465 C479 0.961 . S
H466 C479 0.960 . S
H467 C479 0.961 . S
H468 C480 0.969 . S
H469 C480 0.969 . S
C470 C471 1.412 . A
C470 C475 1.415 . A
C470 C480 1.481 . S
C471 C472 1.383 . A
C471 C479 1.547 . S
C472 C473 1.419 . A
C472 C478 1.541 . S
C473 C474 1.366 . A
C473 C477 1.485 . S
C474 C475 1.390 . A
C475 C476 1.504 . S
H481 C499 0.930 . S
H482 C501 0.960 . S
H483 C501 0.959 . S
H484 C501 0.962 . S
H485 C502 0.958 . S
H486 C502 0.962 . S
H487 C502 0.960 . S
H488 C503 0.970 . S
H489 C503 0.970 . S
H490 C504 0.961 . S
H491 C504 0.960 . S
H492 C504 0.961 . S
H493 C505 0.969 . S
H494 C505 0.969 . S
C495 C496 1.412 . A
C495 C500 1.415 . A
C495 C505 1.481 . S
C496 C497 1.383 . A
C496 C504 1.547 . S
C497 C498 1.419 . A
C497 C503 1.541 . S
C498 C499 1.366 . A
C498 C502 1.485 . S
C499 C500 1.390 . A
C500 C501 1.504 . S
H506 C524 0.930 . S
H507 C526 0.960 . S
H508 C526 0.959 . S
H509 C526 0.962 . S
H510 C527 0.958 . S
H511 C527 0.962 . S
H512 C527 0.960 . S
H513 C528 0.970 . S
H514 C528 0.970 . S
H515 C529 0.961 . S
H516 C529 0.960 . S
H517 C529 0.961 . S
H518 C530 0.969 . S
H519 C530 0.969 . S
C520 C521 1.412 . A
C520 C525 1.415 . A
C520 C530 1.481 . S
C521 C522 1.383 . A
C521 C529 1.547 . S
C522 C523 1.419 . A
C522 C528 1.541 . S
C523 C524 1.366 . A
C523 C527 1.485 . S
C524 C525 1.390 . A
C525 C526 1.504 . S
H531 C549 0.930 . S
H532 C551 0.960 . S
H533 C551 0.959 . S
H534 C551 0.962 . S
H535 C552 0.958 . S
H536 C552 0.962 . S
H537 C552 0.960 . S
H538 C553 0.970 . S
H539 C553 0.970 . S
H540 C554 0.961 . S
H541 C554 0.960 . S
H542 C554 0.961 . S
H543 C555 0.969 . S
H544 C555 0.969 . S
C545 C546 1.412 . A
C545 C550 1.415 . A
C545 C555 1.481 . S
C546 C547 1.383 . A
C546 C554 1.547 . S
C547 C548 1.419 . A
C547 C553 1.541 . S
C548 C549 1.366 . A
C548 C552 1.485 . S
C549 C550 1.390 . A
C550 C551 1.504 . S
H556 C574 0.930 . S
H557 C576 0.960 . S
H558 C576 0.959 . S
H559 C576 0.962 . S
H560 C577 0.958 . S
H561 C577 0.962 . S
H562 C577 0.960 . S
H563 C578 0.970 . S
H564 C578 0.970 . S
H565 C579 0.961 . S
H566 C579 0.960 . S
H567 C579 0.961 . S
H568 C580 0.969 . S
H569 C580 0.969 . S
C570 C571 1.412 . A
C570 C575 1.415 . A
C570 C580 1.481 . S
C571 C572 1.383 . A
C571 C579 1.547 . S
C572 C573 1.419 . A
C572 C578 1.541 . S
C573 C574 1.366 . A
C573 C577 1.485 . S
C574 C575 1.390 . A
C575 C576 1.504 . S
H581 C599 0.930 . S
H582 C601 0.960 . S
H583 C601 0.959 . S
H584 C601 0.962 . S
H585 C602 0.958 . S
H586 C602 0.962 . S
H587 C602 0.960 . S
H588 C603 0.970 . S
H589 C603 0.970 . S
H590 C604 0.961 . S
H591 C604 0.960 . S
H592 C604 0.961 . S
H593 C605 0.969 . S
H594 C605 0.969 . S
C595 C596 1.412 . A
C595 C600 1.415 . A
C595 C605 1.481 . S
C596 C597 1.383 . A
C596 C604 1.547 . S
C597 C598 1.419 . A
C597 C603 1.541 . S
C598 C599 1.366 . A
C598 C602 1.485 . S
C599 C600 1.390 . A
C600 C601 1.504 . S
H606 C624 0.930 . S
H607 C626 0.960 . S
H608 C626 0.959 . S
H609 C626 0.962 . S
H610 C627 0.958 . S
H611 C627 0.962 . S
H612 C627 0.960 . S
H613 C628 0.970 . S
H614 C628 0.970 . S
H615 C629 0.961 1_455 S
H616 C629 0.960 . S
H617 C629 0.961 . S
H618 C630 0.969 . S
H619 C630 0.969 . S
C620 C621 1.412 . A
C620 C625 1.415 . A
C620 C630 1.481 . S
C621 C622 1.383 1_655 A
C621 C629 1.547 . S
C622 C623 1.419 . A
C622 C628 1.541 . S
C623 C624 1.366 . A
C623 C627 1.485 . S
C624 C625 1.390 1_455 A
C625 C626 1.504 . S
H631 C649 0.930 . S
H632 C651 0.960 . S
H633 C651 0.959 . S
H634 C651 0.962 . S
H635 C652 0.958 . S
H636 C652 0.962 . S
H637 C652 0.960 . S
H638 C653 0.970 . S
H639 C653 0.970 . S
H640 C654 0.961 1_565 S
H641 C654 0.963 . S
H642 C654 0.961 . S
H643 C655 0.969 . S
H644 C655 0.969 . S
C645 C646 1.412 1_565 A
C645 C650 1.415 . A
C645 C655 1.481 . S
C646 C647 1.383 . A
C646 C654 1.547 . S
C647 C648 1.419 . A
C647 C653 1.541 . S
C648 C649 1.366 . A
C648 C652 1.485 . S
C649 C650 1.390 1_545 A
C650 C651 1.504 . S
H656 C674 0.930 . S
H657 C676 0.960 . S
H658 C676 0.959 . S
H659 C676 0.962 . S
H660 C677 0.958 . S
H661 C677 0.962 . S
H662 C677 0.960 . S
H663 C678 0.970 . S
H664 C678 0.970 . S
H665 C679 0.961 . S
H666 C679 0.960 . S
H667 C679 0.961 . S
H668 C680 0.969 . S
H669 C680 0.969 . S
C670 C671 1.412 . A
C670 C675 1.415 . A
C670 C680 1.481 . S
C671 C672 1.383 . A
C671 C679 1.547 . S
C672 C673 1.419 . A
C672 C678 1.541 . S
C673 C674 1.366 . A
C673 C677 1.485 . S
C674 C675 1.390 . A
C675 C676 1.504 . S
H681 C699 0.930 . S
H682 C701 0.960 . S
H683 C701 0.959 . S
H684 C701 0.962 . S
H685 C702 0.958 . S
H686 C702 0.962 . S
H687 C702 0.960 . S
H688 C703 0.970 . S
H689 C703 0.970 . S
H690 C704 0.961 1_655 S
H691 C704 0.960 . S
H692 C704 0.961 . S
H693 C705 0.969 . S
H694 C705 0.969 . S
C695 C696 1.412 1_655 A
C695 C700 1.415 . A
C695 C705 1.481 . S
C696 C697 1.383 . A
C696 C704 1.547 . S
C697 C698 1.419 . A
C697 C703 1.541 . S
C698 C699 1.366 . A
C698 C702 1.485 . S
C699 C700 1.390 1_455 A
C700 C701 1.504 . S
H706 C724 0.930 . S
H707 C726 0.960 . S
H708 C726 0.959 . S
H709 C726 0.962 . S
H710 C727 0.958 . S
H711 C727 0.962 . S
H712 C727 0.960 . S
H713 C728 0.970 . S
H714 C728 0.970 . S
H715 C729 0.961 . S
H716 C729 0.960 . S
H717 C729 0.961 . S
H718 C730 0.969 . S
H719 C730 0.969 . S
C720 C721 1.412 1_545 A
C720 C725 1.415 . A
C720 C730 1.481 . S
C721 C722 1.383 . A
C721 C729 1.547 . S
C722 C723 1.419 . A
C722 C728 1.541 . S
C723 C724 1.366 1_565 A
C723 C727 1.485 . S
C724 C725 1.390 . A
C725 C726 1.504 . S
H731 C749 0.930 . S
H732 C751 0.960 . S
H733 C751 0.959 . S
H734 C751 0.962 . S
H735 C752 0.958 . S
H736 C752 0.962 . S
H737 C752 0.960 . S
H738 C753 0.970 . S
H739 C753 0.970 . S
H740 C754 0.961 . S
H741 C754 0.960 . S
H742 C754 0.961 . S
H743 C755 0.969 . S
H744 C755 0.969 . S
C745 C746 1.412 . A
C745 C750 1.415 . A
C745 C755 1.481 . S
C746 C747 1.383 . A
C746 C754 1.547 . S
C747 C748 1.419 . A
C747 C753 1.541 . S
C748 C749 1.366 . A
C748 C752 1.485 . S
C749 C750 1.390 . A
C750 C751 1.504 . S
C178 C5 1.188 . S
C180 C31 1.387 . S
C203 C18 1.177 . S
C205 C44 1.383 . S
C228 C135 1.163 . S
C230 C57 1.380 . S
C253 C148 1.213 . S
C255 C70 1.398 . S
C278 C122 1.213 . S
C280 C83 1.397 . S
C303 C109 1.213 . S
C305 C96 1.397 . S
C328 C89 1.430 . S
C330 C11 1.587 . S
C353 C63 1.440 . S
C355 C24 1.569 . S
C378 C37 1.235 . S
C380 C128 1.508 . S
C403 C141 1.442 . S
C405 C50 1.570 . S
C428 C76 1.442 . S
C430 C115 1.570 . S
C453 C102 1.308 . S
C455 C154 1.520 . S
C478 C73 1.392 . S
C480 C8 1.635 . S
C503 C21 1.456 . S
C505 C34 1.599 . S
C528 C112 1.389 . S
C530 C47 1.636 . S
C553 C151 1.338 . S
C555 C60 1.635 . S
C578 C86 1.333 . S
C580 C138 1.647 . S
C603 C99 1.425 . S
C605 C125 1.625 . S
C628 C129 1.081 . S
C630 C12 1.311 . S
C653 C142 1.085 . S
C655 C25 1.263 . S
C678 C90 1.140 . S
C680 C38 1.297 . S
C703 C64 1.086 . S
C705 C51 1.262 . S
C728 C103 1.107 . S
C730 C77 1.259 . S
C753 C116 1.063 . S
C755 C155 1.268 . S
