# Generated by pormake.
# Topology vmk, (6)-cn, num edge types: 1
# Building blocks:
#     Node 0, Type 0, BuildingBlock: N101, # of connection points: 6
#     Node 1, Type 0, BuildingBlock: N101, # of connection points: 6
#     Node 2, Type 0, BuildingBlock: N101, # of connection points: 6
#     Node 3, Type 0, BuildingBlock: N101, # of connection points: 6
#     Node 4, Type 0, BuildingBlock: N101, # of connection points: 6
#     Node 5, Type 0, BuildingBlock: N101, # of connection points: 6
#     Node 6, Type 0, BuildingBlock: N101, # of connection points: 6
#     Node 7, Type 0, BuildingBlock: N101, # of connection points: 6
#     Edge 8, Type (0, 0), BuildingBlock: E150, # of connection points: 2
#     Edge 9, Type (0, 0), BuildingBlock: E150, # of connection points: 2
#     Edge 10, Type (0, 0), BuildingBlock: E150, # of connection points: 2
#     Edge 11, Type (0, 0), BuildingBlock: E150, # of connection points: 2
#     Edge 12, Type (0, 0), BuildingBlock: E150, # of connection points: 2
#     Edge 13, Type (0, 0), BuildingBlock: E150, # of connection points: 2
#     Edge 14, Type (0, 0), BuildingBlock: E150, # of connection points: 2
#     Edge 15, Type (0, 0), BuildingBlock: E150, # of connection points: 2
#     Edge 16, Type (0, 0), BuildingBlock: E150, # of connection points: 2
#     Edge 17, Type (0, 0), BuildingBlock: E150, # of connection points: 2
#     Edge 18, Type (0, 0), BuildingBlock: E150, # of connection points: 2
#     Edge 19, Type (0, 0), BuildingBlock: E150, # of connection points: 2
#     Edge 20, Type (0, 0), BuildingBlock: E150, # of connection points: 2
#     Edge 21, Type (0, 0), BuildingBlock: E150, # of connection points: 2
#     Edge 22, Type (0, 0), BuildingBlock: E150, # of connection points: 2
#     Edge 23, Type (0, 0), BuildingBlock: E150, # of connection points: 2
#     Edge 24, Type (0, 0), BuildingBlock: E150, # of connection points: 2
#     Edge 25, Type (0, 0), BuildingBlock: E150, # of connection points: 2
#     Edge 26, Type (0, 0), BuildingBlock: E150, # of connection points: 2
#     Edge 27, Type (0, 0), BuildingBlock: E150, # of connection points: 2
#     Edge 28, Type (0, 0), BuildingBlock: E150, # of connection points: 2
#     Edge 29, Type (0, 0), BuildingBlock: E150, # of connection points: 2
#     Edge 30, Type (0, 0), BuildingBlock: E150, # of connection points: 2
#     Edge 31, Type (0, 0), BuildingBlock: E150, # of connection points: 2
# Relax obj value: 0.256
# Max RMSD: 0.276
# Mean RMSD: 0.276
data_vmk+N101+E150
_symmetry_space_group_name_H-M    P1
_symmetry_Int_Tables_number       1
_symmetry_cell_setting            triclinic
loop_
_symmetry_equiv_pos_as_xyz
'x, y, z'
_cell_length_a     33.161
_cell_length_b     39.798
_cell_length_c     23.458
_cell_angle_alpha  89.995
_cell_angle_beta   86.318
_cell_angle_gamma  90.010
loop_
_atom_site_label
_atom_site_type_symbol
_atom_site_fract_x
_atom_site_fract_y
_atom_site_fract_z
_atom_type_partial_charge
Dy0 Dy 0.59998 0.30596 0.35450 0.00000
Dy1 Dy 0.60171 0.41897 0.28610 0.00000
O2 O 0.69785 0.33508 0.26337 0.00000
O3 O 0.65358 0.29574 0.29565 0.00000
C4 C 0.53774 0.43923 0.36015 0.00000
C5 C 0.63835 0.38160 0.39748 0.00000
C6 C 0.58188 0.44336 0.17751 0.00000
C7 C 0.57042 0.33913 0.23921 0.00000
O8 O 0.57028 0.31272 0.26862 0.00000
O9 O 0.58100 0.36770 0.25596 0.00000
C10 C 0.61977 0.28148 0.46256 0.00000
O11 O 0.58635 0.29535 0.45449 0.00000
O12 O 0.64413 0.27387 0.42073 0.00000
O13 O 0.63293 0.35265 0.37750 0.00000
C14 C 0.68556 0.30567 0.27102 0.00000
O15 O 0.61801 0.43878 0.18797 0.00000
O16 O 0.55392 0.44172 0.21720 0.00000
O17 O 0.56720 0.45803 0.34553 0.00000
O18 O 0.53704 0.40903 0.34470 0.00000
O19 O 0.62722 0.40813 0.37418 0.00000
Dy20 Dy 0.59999 0.19402 0.85448 0.00000
Dy21 Dy 0.60170 0.08103 0.78609 0.00000
O22 O 0.69786 0.16494 0.76335 0.00000
O23 O 0.65359 0.20427 0.79562 0.00000
C24 C 0.53773 0.06074 0.86015 0.00000
C25 C 0.63836 0.11839 0.89747 0.00000
C26 C 0.58187 0.05663 0.67751 0.00000
C27 C 0.57043 0.16086 0.73920 0.00000
O28 O 0.57029 0.18727 0.76861 0.00000
O29 O 0.58100 0.13229 0.75595 0.00000
C30 C 0.61979 0.21851 0.96254 0.00000
O31 O 0.58637 0.20463 0.95447 0.00000
O32 O 0.64415 0.22612 0.92070 0.00000
O33 O 0.63293 0.14734 0.87749 0.00000
C34 C 0.68557 0.19434 0.77100 0.00000
O35 O 0.61800 0.06122 0.68797 0.00000
O36 O 0.55390 0.05827 0.71720 0.00000
O37 O 0.56719 0.04195 0.84553 0.00000
O38 O 0.53703 0.09095 0.84470 0.00000
O39 O 0.62722 0.09186 0.87417 0.00000
Dy40 Dy 0.40003 0.69405 0.64550 0.00000
Dy41 Dy 0.39831 0.58104 0.71390 0.00000
O42 O 0.30216 0.66493 0.73662 0.00000
O43 O 0.34643 0.70427 0.70435 0.00000
C44 C 0.46228 0.56078 0.63985 0.00000
C45 C 0.36166 0.61841 0.60251 0.00000
C46 C 0.41814 0.55665 0.82248 0.00000
C47 C 0.42959 0.66088 0.76078 0.00000
O48 O 0.42973 0.68729 0.73138 0.00000
O49 O 0.41902 0.63231 0.74404 0.00000
C50 C 0.38024 0.71853 0.53744 0.00000
O51 O 0.41366 0.70466 0.54551 0.00000
O52 O 0.35588 0.72614 0.57927 0.00000
O53 O 0.36709 0.64736 0.62249 0.00000
C54 C 0.31445 0.69434 0.72897 0.00000
O55 O 0.38201 0.56123 0.81203 0.00000
O56 O 0.44610 0.55829 0.78280 0.00000
O57 O 0.43282 0.54198 0.65447 0.00000
O58 O 0.46298 0.59099 0.65530 0.00000
O59 O 0.37280 0.59188 0.62582 0.00000
Dy60 Dy 0.89997 0.30597 0.64553 0.00000
Dy61 Dy 0.89827 0.41897 0.71391 0.00000
O62 O 0.80211 0.33507 0.73665 0.00000
O63 O 0.84637 0.29573 0.70438 0.00000
C64 C 0.96224 0.43925 0.63986 0.00000
C65 C 0.86161 0.38161 0.60254 0.00000
C66 C 0.91810 0.44336 0.82249 0.00000
C67 C 0.92954 0.33914 0.76081 0.00000
O68 O 0.92967 0.31273 0.73140 0.00000
O69 O 0.91897 0.36771 0.74406 0.00000
C70 C 0.88018 0.28149 0.53747 0.00000
O71 O 0.91360 0.29536 0.54554 0.00000
O72 O 0.85581 0.27388 0.57931 0.00000
O73 O 0.86703 0.35266 0.62252 0.00000
C74 C 0.81440 0.30566 0.72901 0.00000
O75 O 0.88197 0.43878 0.81204 0.00000
O76 O 0.94607 0.44173 0.78281 0.00000
O77 O 0.93278 0.45805 0.65447 0.00000
O78 O 0.96294 0.40905 0.65531 0.00000
O79 O 0.87275 0.40814 0.62583 0.00000
Dy80 Dy 0.10004 0.69402 0.35447 0.00000
Dy81 Dy 0.10175 0.58102 0.28608 0.00000
O82 O 0.19791 0.66493 0.26334 0.00000
O83 O 0.15364 0.70426 0.29561 0.00000
C84 C 0.03778 0.56073 0.36014 0.00000
C85 C 0.13840 0.61838 0.39746 0.00000
C86 C 0.08192 0.55662 0.17750 0.00000
C87 C 0.07047 0.66085 0.23919 0.00000
O88 O 0.07034 0.68726 0.26860 0.00000
O89 O 0.08105 0.63228 0.25594 0.00000
C90 C 0.11983 0.71850 0.46253 0.00000
O91 O 0.08641 0.70462 0.45446 0.00000
O92 O 0.14420 0.72612 0.42069 0.00000
O93 O 0.13298 0.64733 0.37748 0.00000
C94 C 0.18561 0.69433 0.27099 0.00000
O95 O 0.11805 0.56121 0.18796 0.00000
O96 O 0.05395 0.55826 0.21719 0.00000
O97 O 0.06724 0.54194 0.34552 0.00000
O98 O 0.03708 0.59094 0.34469 0.00000
O99 O 0.12726 0.59185 0.37416 0.00000
Dy100 Dy 0.90003 0.19403 0.14551 0.00000
Dy101 Dy 0.89831 0.08103 0.21391 0.00000
O102 O 0.80216 0.16492 0.23663 0.00000
O103 O 0.84644 0.20426 0.20436 0.00000
C104 C 0.96228 0.06076 0.13986 0.00000
C105 C 0.86166 0.11840 0.10252 0.00000
C106 C 0.91813 0.05664 0.32249 0.00000
C107 C 0.92959 0.16087 0.26079 0.00000
O108 O 0.92973 0.18728 0.23138 0.00000
O109 O 0.91902 0.13230 0.24405 0.00000
C110 C 0.88025 0.21852 0.03745 0.00000
O111 O 0.91366 0.20465 0.04552 0.00000
O112 O 0.85588 0.22613 0.07928 0.00000
O113 O 0.86709 0.14734 0.12250 0.00000
C114 C 0.81446 0.19433 0.22898 0.00000
O115 O 0.88201 0.06122 0.31204 0.00000
O116 O 0.94610 0.05828 0.28281 0.00000
O117 O 0.93281 0.04197 0.15447 0.00000
O118 O 0.96298 0.09097 0.15531 0.00000
O119 O 0.87279 0.09187 0.12583 0.00000
Dy120 Dy 0.40000 0.80599 0.14552 0.00000
Dy121 Dy 0.39828 0.91898 0.21391 0.00000
O122 O 0.30213 0.83507 0.23665 0.00000
O123 O 0.34640 0.79574 0.20438 0.00000
C124 C 0.46225 0.93927 0.13985 0.00000
C125 C 0.36163 0.88162 0.10253 0.00000
C126 C 0.41811 0.94338 0.32249 0.00000
C127 C 0.42956 0.83915 0.26080 0.00000
O128 O 0.42970 0.81274 0.23140 0.00000
O129 O 0.41899 0.86772 0.24405 0.00000
C130 C 0.38020 0.78150 0.03746 0.00000
O131 O 0.41362 0.79538 0.04553 0.00000
O132 O 0.35584 0.77388 0.07930 0.00000
O133 O 0.36705 0.85267 0.12251 0.00000
C134 C 0.31442 0.80567 0.22900 0.00000
O135 O 0.38199 0.93879 0.31204 0.00000
O136 O 0.44608 0.94174 0.28280 0.00000
O137 O 0.43279 0.95806 0.15447 0.00000
O138 O 0.46295 0.90906 0.15531 0.00000
O139 O 0.37277 0.90815 0.12583 0.00000
Dy140 Dy 0.09995 0.80595 0.85449 0.00000
Dy141 Dy 0.10168 0.91896 0.78610 0.00000
O142 O 0.19783 0.83507 0.76337 0.00000
O143 O 0.15355 0.79573 0.79564 0.00000
C144 C 0.03771 0.93922 0.86015 0.00000
C145 C 0.13832 0.88160 0.89748 0.00000
C146 C 0.08185 0.94335 0.67751 0.00000
C147 C 0.07039 0.83912 0.73921 0.00000
O148 O 0.07025 0.81271 0.76862 0.00000
O149 O 0.08097 0.86769 0.75595 0.00000
C150 C 0.11974 0.78147 0.96256 0.00000
O151 O 0.08632 0.79534 0.95449 0.00000
O152 O 0.14411 0.77386 0.92072 0.00000
O153 O 0.13290 0.85265 0.87750 0.00000
C154 C 0.18553 0.80566 0.77102 0.00000
O155 O 0.11798 0.93877 0.68797 0.00000
O156 O 0.05388 0.94171 0.71720 0.00000
O157 O 0.06717 0.95802 0.84553 0.00000
O158 O 0.03700 0.90902 0.84470 0.00000
O159 O 0.12719 0.90812 0.87418 0.00000
C160 C 0.84211 0.35004 0.53487 0.00000
C161 C 0.66449 0.38581 0.45282 0.00000
C162 C 0.70279 0.37512 0.46186 0.00000
C163 C 0.72099 0.38183 0.51260 0.00000
C164 C 0.69915 0.40013 0.55453 0.00000
C165 C 0.66012 0.41067 0.54595 0.00000
C166 C 0.64316 0.40418 0.49503 0.00000
H167 H 0.78037 0.41032 0.56636 0.00000
H168 H 0.76073 0.32654 0.47807 0.00000
H169 H 0.82634 0.31046 0.48800 0.00000
H170 H 0.86839 0.34301 0.53986 0.00000
H171 H 0.71709 0.36302 0.43325 0.00000
H172 H 0.71074 0.40535 0.58852 0.00000
H173 H 0.64533 0.42220 0.57478 0.00000
H174 H 0.61741 0.41211 0.48894 0.00000
C175 C 0.82851 0.37964 0.55781 0.00000
C176 C 0.78939 0.39004 0.55062 0.00000
C177 C 0.76319 0.37054 0.52006 0.00000
C178 C 0.77771 0.34033 0.49779 0.00000
C179 C 0.81681 0.33047 0.50432 0.00000
C180 C 0.65542 0.08279 0.97107 0.00000
C181 C 0.83554 0.11516 0.04709 0.00000
C182 C 0.79651 0.10573 0.03983 0.00000
C183 C 0.77871 0.11023 0.98810 0.00000
C184 C 0.80176 0.12497 0.94326 0.00000
C185 C 0.84151 0.13419 0.95009 0.00000
C186 C 0.85809 0.12997 0.00195 0.00000
H187 H 0.72139 0.13804 0.92939 0.00000
H188 H 0.73507 0.05913 0.03202 0.00000
H189 H 0.66837 0.04552 0.02472 0.00000
H190 H 0.62865 0.07670 0.96724 0.00000
H191 H 0.78140 0.09603 0.07037 0.00000
H192 H 0.79050 0.12868 0.90848 0.00000
H193 H 0.85706 0.14328 0.91944 0.00000
H194 H 0.88438 0.13705 0.00672 0.00000
C195 C 0.67111 0.11023 0.94310 0.00000
C196 C 0.71094 0.11922 0.94858 0.00000
C197 C 0.73574 0.10048 0.98251 0.00000
C198 C 0.71909 0.07243 0.00992 0.00000
C199 C 0.67932 0.06401 0.00501 0.00000
C200 C 0.32650 0.65369 0.57266 0.00000
C201 C 0.17559 0.61155 0.42610 0.00000
C202 C 0.20335 0.62475 0.46060 0.00000
C203 C 0.24299 0.61296 0.45959 0.00000
C204 C 0.25392 0.58686 0.42239 0.00000
C205 C 0.22609 0.57366 0.38676 0.00000
C206 C 0.18696 0.58541 0.38936 0.00000
H207 H 0.30231 0.58449 0.51349 0.00000
H208 H 0.25277 0.67536 0.49741 0.00000
H209 H 0.29649 0.69666 0.56019 0.00000
H210 H 0.34474 0.66263 0.59706 0.00000
H211 H 0.19550 0.64212 0.48549 0.00000
H212 H 0.28002 0.57820 0.42134 0.00000
H213 H 0.23392 0.55676 0.36097 0.00000
H214 H 0.16816 0.57583 0.36650 0.00000
C215 C 0.32806 0.62049 0.55899 0.00000
C216 C 0.30107 0.60721 0.52253 0.00000
C217 C 0.27194 0.62740 0.49904 0.00000
C218 C 0.27138 0.66119 0.51317 0.00000
C219 C 0.29786 0.67406 0.55016 0.00000
C220 C 0.34412 0.85192 0.03000 0.00000
C221 C 0.16444 0.88493 0.95291 0.00000
C222 C 0.20335 0.87526 0.96049 0.00000
C223 C 0.22121 0.88017 0.01206 0.00000
C224 C 0.19837 0.89559 0.05640 0.00000
C225 C 0.15874 0.90505 0.04927 0.00000
C226 C 0.14211 0.90041 0.99755 0.00000
H227 H 0.27891 0.90814 0.06986 0.00000
H228 H 0.26414 0.82825 0.96983 0.00000
H229 H 0.33065 0.81417 0.97759 0.00000
H230 H 0.37080 0.84565 0.03403 0.00000
H231 H 0.21832 0.86511 0.93028 0.00000
H232 H 0.20968 0.89958 0.09105 0.00000
H233 H 0.14333 0.91460 0.07961 0.00000
H234 H 0.11591 0.90765 0.99255 0.00000
C235 C 0.32881 0.87979 0.05707 0.00000
C236 C 0.28910 0.88904 0.05129 0.00000
C237 C 0.26404 0.87013 0.01798 0.00000
C238 C 0.28031 0.84165 0.99150 0.00000
C239 C 0.31996 0.83296 0.99669 0.00000
C240 C 0.48261 0.56625 0.90670 0.00000
C241 C 0.53738 0.46383 0.10160 0.00000
C242 C 0.53249 0.48716 0.05972 0.00000
C243 C 0.49451 0.49529 0.04140 0.00000
C244 C 0.46107 0.47876 0.06674 0.00000
C245 C 0.46575 0.45541 0.10973 0.00000
C246 C 0.50368 0.44745 0.12629 0.00000
H247 H 0.44390 0.49789 0.95806 0.00000
H248 H 0.53499 0.55161 0.01513 0.00000
H249 H 0.52957 0.58871 0.94114 0.00000
H250 H 0.47997 0.58179 0.87757 0.00000
H251 H 0.55522 0.49790 0.04298 0.00000
H252 H 0.43541 0.48337 0.05485 0.00000
H253 H 0.44312 0.44505 0.12747 0.00000
H254 H 0.50671 0.43111 0.15403 0.00000
C255 C 0.45741 0.53930 0.91163 0.00000
C256 C 0.46121 0.51626 0.95506 0.00000
C257 C 0.49065 0.52015 0.99454 0.00000
C258 C 0.51555 0.54806 0.98888 0.00000
C259 C 0.51201 0.57050 0.94506 0.00000
C260 C 0.50997 0.03268 0.63680 0.00000
C261 C 0.45502 0.97163 0.39813 0.00000
C262 C 0.46185 0.98096 0.45284 0.00000
C263 C 0.48768 0.00738 0.46453 0.00000
C264 C 0.50694 0.02428 0.41863 0.00000
C265 C 0.49975 0.01525 0.36306 0.00000
C266 C 0.47463 0.98868 0.35277 0.00000
H267 H 0.55390 0.02922 0.51098 0.00000
H268 H 0.43911 0.00707 0.55952 0.00000
H269 H 0.45189 0.01921 0.65225 0.00000
H270 H 0.51471 0.03830 0.67426 0.00000
H271 H 0.44886 0.96928 0.48313 0.00000
H272 H 0.52474 0.04173 0.42516 0.00000
H273 H 0.51199 0.02722 0.33257 0.00000
H274 H 0.47080 0.98216 0.31544 0.00000
C275 C 0.54015 0.03549 0.59499 0.00000
C276 C 0.53309 0.02728 0.53926 0.00000
C277 C 0.49515 0.01610 0.52474 0.00000
C278 C 0.46487 0.01388 0.56808 0.00000
C279 C 0.47233 0.02155 0.62347 0.00000
C280 C 0.99287 0.44881 0.87986 0.00000
C281 C 0.04261 0.54378 0.08800 0.00000
C282 C 0.03790 0.52073 0.04564 0.00000
C283 C 0.00752 0.52370 0.00750 0.00000
C284 C 0.98143 0.55097 0.01369 0.00000
C285 C 0.98636 0.57467 0.05606 0.00000
C286 C 0.01620 0.57078 0.09373 0.00000
H287 H 0.94174 0.49896 0.96369 0.00000
H288 H 0.06172 0.48749 0.94536 0.00000
H289 H 0.05344 0.44623 0.87882 0.00000
H290 H 0.98977 0.43261 0.85191 0.00000
H291 H 0.05551 0.50251 0.04222 0.00000
H292 H 0.96056 0.55336 0.98932 0.00000
H293 H 0.96940 0.59329 0.05904 0.00000
H294 H 0.01864 0.58625 0.12301 0.00000
C295 C 0.95986 0.46433 0.90518 0.00000
C296 C 0.96447 0.48852 0.94654 0.00000
C297 C 0.00274 0.49752 0.96300 0.00000
C298 C 0.03582 0.48159 0.93598 0.00000
C299 C 0.03094 0.45720 0.89564 0.00000
C300 C 0.98277 0.06613 0.40640 0.00000
C301 C 0.03737 0.96387 0.60164 0.00000
C302 C 0.03252 0.98714 0.55966 0.00000
C303 C 0.99455 0.99538 0.54145 0.00000
C304 C 0.96106 0.97902 0.56701 0.00000
C305 C 0.96570 0.95573 0.61011 0.00000
C306 C 0.00362 0.94766 0.62657 0.00000
H307 H 0.94378 0.99801 0.45830 0.00000
H308 H 0.03529 0.05150 0.51469 0.00000
H309 H 0.02994 0.08848 0.44052 0.00000
H310 H 0.98016 0.08163 0.37720 0.00000
H311 H 0.05528 0.99777 0.54277 0.00000
H312 H 0.93540 0.98369 0.55519 0.00000
H313 H 0.94304 0.94549 0.62799 0.00000
H314 H 0.00662 0.93136 0.65437 0.00000
C315 C 0.95742 0.03928 0.41159 0.00000
C316 C 0.96118 0.01631 0.45513 0.00000
C317 C 0.99073 0.02017 0.49446 0.00000
C318 C 0.01578 0.04797 0.48855 0.00000
C319 C 0.01228 0.07035 0.44461 0.00000
C320 C 0.45226 0.56820 0.56998 0.00000
C321 C 0.53043 0.45593 0.39657 0.00000
C322 C 0.50859 0.47971 0.42732 0.00000
C323 C 0.52413 0.49653 0.47323 0.00000
C324 C 0.56292 0.48837 0.48768 0.00000
C325 C 0.58543 0.46461 0.45623 0.00000
C326 C 0.56906 0.44798 0.41171 0.00000
H327 H 0.51959 0.51139 0.58397 0.00000
H328 H 0.47021 0.54123 0.44126 0.00000
H329 H 0.43043 0.57853 0.49398 0.00000
H330 H 0.43672 0.58390 0.59091 0.00000
H331 H 0.48257 0.48478 0.41727 0.00000
H332 H 0.57387 0.49888 0.51858 0.00000
H333 H 0.61174 0.45988 0.46529 0.00000
H334 H 0.58388 0.43143 0.39180 0.00000
C335 C 0.47853 0.54822 0.59657 0.00000
C336 C 0.50177 0.52498 0.56545 0.00000
C337 C 0.49890 0.52157 0.50659 0.00000
C338 C 0.47226 0.54253 0.48056 0.00000
C339 C 0.44881 0.56516 0.51194 0.00000
C340 C 0.49085 0.92213 0.06877 0.00000
C341 C 0.50934 0.04935 0.89723 0.00000
C342 C 0.51015 0.01989 0.92726 0.00000
C343 C 0.48357 0.01365 0.97457 0.00000
C344 C 0.45585 0.03852 0.99122 0.00000
C345 C 0.45450 0.06826 0.96054 0.00000
C346 C 0.48157 0.07397 0.91457 0.00000
H347 H 0.47164 0.00010 0.08557 0.00000
H348 H 0.50058 0.95114 0.94030 0.00000
H349 H 0.50623 0.90244 0.99153 0.00000
H350 H 0.49229 0.90217 0.08914 0.00000
H351 H 0.52903 0.00355 0.91572 0.00000
H352 H 0.43809 0.03522 0.02308 0.00000
H353 H 0.43520 0.08444 0.97111 0.00000
H354 H 0.48125 0.09433 0.89515 0.00000
C355 C 0.48078 0.95124 0.09654 0.00000
C356 C 0.47847 0.98089 0.06625 0.00000
C357 C 0.48624 0.98161 0.00703 0.00000
C358 C 0.49593 0.95153 0.97982 0.00000
C359 C 0.49882 0.92229 0.01034 0.00000
C360 C 0.98889 0.48336 0.64658 0.00000
C361 C 0.02734 0.53965 0.39001 0.00000
C362 C 0.01787 0.53329 0.44664 0.00000
C363 C 0.02277 0.50154 0.47038 0.00000
C364 C 0.03751 0.47590 0.43462 0.00000
C365 C 0.04767 0.48227 0.37734 0.00000
C366 C 0.04187 0.51373 0.35485 0.00000
H367 H 0.99062 0.44794 0.52356 0.00000
H368 H 0.02815 0.54021 0.56227 0.00000
H369 H 0.00815 0.53076 0.65635 0.00000
H370 H 0.98170 0.47941 0.68497 0.00000
H371 H 0.00785 0.55070 0.46997 0.00000
H372 H 0.04059 0.45436 0.44914 0.00000
H373 H 0.05845 0.46518 0.35399 0.00000
H374 H 0.04769 0.51761 0.31610 0.00000
C375 C 0.98358 0.45894 0.60721 0.00000
C376 C 0.99442 0.46474 0.55018 0.00000
C377 C 0.01101 0.49547 0.53191 0.00000
C378 C 0.01653 0.51971 0.57305 0.00000
C379 C 0.00505 0.51394 0.62946 0.00000
C380 C 0.01735 0.98453 0.85370 0.00000
C381 C 0.97173 0.04034 0.10883 0.00000
C382 C 0.98354 0.03396 0.05290 0.00000
C383 C 0.97603 0.00319 0.02718 0.00000
C384 C 0.95613 0.97855 0.06021 0.00000
C385 C 0.94360 0.98499 0.11672 0.00000
C386 C 0.95204 0.01541 0.14128 0.00000
H387 H 0.00394 0.94774 0.97518 0.00000
H388 H 0.98103 0.04342 0.93622 0.00000
H389 H 0.00501 0.03355 0.84383 0.00000
H390 H 0.02617 0.98050 0.81589 0.00000
H391 H 0.99701 0.05067 0.03142 0.00000
H392 H 0.95118 0.95763 0.04438 0.00000
H393 H 0.92942 0.96866 0.13814 0.00000
H394 H 0.94455 0.01924 0.17961 0.00000
C395 C 0.01717 0.95922 0.89266 0.00000
C396 C 0.00390 0.96516 0.94882 0.00000
C397 C 0.99043 0.99696 0.96660 0.00000
C398 C 0.99048 0.02214 0.92584 0.00000
C399 C 0.00435 0.01616 0.87037 0.00000
C400 C 0.66418 0.29201 0.20787 0.00000
C401 C 0.82367 0.20163 0.23769 0.00000
C402 C 0.78751 0.21608 0.22683 0.00000
C403 C 0.77938 0.24986 0.23841 0.00000
C404 C 0.80923 0.26891 0.26202 0.00000
C405 C 0.84615 0.25454 0.27245 0.00000
C406 C 0.85309 0.22097 0.26149 0.00000
H407 H 0.73501 0.29630 0.29460 0.00000
H408 H 0.72956 0.23846 0.15584 0.00000
H409 H 0.66692 0.26011 0.14133 0.00000
H410 H 0.63919 0.30124 0.20100 0.00000
H411 H 0.76775 0.20294 0.21125 0.00000
H412 H 0.80445 0.29141 0.27088 0.00000
H413 H 0.86634 0.26766 0.28695 0.00000
H414 H 0.87749 0.21127 0.27004 0.00000
C415 C 0.68428 0.30258 0.25332 0.00000
C416 C 0.72151 0.28897 0.26340 0.00000
C417 C 0.73917 0.26437 0.22743 0.00000
C418 C 0.71823 0.25439 0.18109 0.00000
C419 C 0.68098 0.26763 0.17194 0.00000
C420 C 0.83456 0.29311 0.79381 0.00000
C421 C 0.67632 0.20158 0.76160 0.00000
C422 C 0.71212 0.21637 0.77333 0.00000
C423 C 0.72042 0.24996 0.76030 0.00000
C424 C 0.69114 0.26844 0.73431 0.00000
C425 C 0.65458 0.25373 0.72298 0.00000
C426 C 0.64747 0.22035 0.73542 0.00000
H427 H 0.76586 0.29552 0.70357 0.00000
H428 H 0.76827 0.24029 0.84580 0.00000
H429 H 0.83038 0.26244 0.86198 0.00000
H430 H 0.85932 0.30257 0.80131 0.00000
H431 H 0.73150 0.20361 0.79050 0.00000
H432 H 0.69607 0.29078 0.72446 0.00000
H433 H 0.63474 0.26649 0.70686 0.00000
H434 H 0.62335 0.21039 0.72628 0.00000
C435 C 0.81551 0.30277 0.74684 0.00000
C436 C 0.77864 0.28883 0.73581 0.00000
C437 C 0.76025 0.26482 0.77233 0.00000
C438 C 0.78012 0.25579 0.82019 0.00000
C439 C 0.81704 0.26934 0.83031 0.00000
C440 C 0.20279 0.81976 0.81585 0.00000
C441 C 0.30788 0.68858 0.73859 0.00000
C442 C 0.29151 0.71818 0.75874 0.00000
C443 C 0.25046 0.72533 0.75662 0.00000
C444 C 0.22604 0.70141 0.73283 0.00000
C445 C 0.24233 0.67116 0.71300 0.00000
C446 C 0.28309 0.66502 0.71475 0.00000
H447 H 0.19224 0.76390 0.71927 0.00000
H448 H 0.26909 0.76392 0.84392 0.00000
H449 H 0.24458 0.81532 0.87375 0.00000
H450 H 0.19235 0.84023 0.82896 0.00000
H451 H 0.30831 0.73401 0.77430 0.00000
H452 H 0.19864 0.70568 0.73018 0.00000
H453 H 0.22560 0.65494 0.69843 0.00000
H454 H 0.29401 0.64509 0.69996 0.00000
C455 C 0.18746 0.80458 0.77002 0.00000
C456 C 0.20284 0.77407 0.75067 0.00000
C457 C 0.23409 0.75828 0.77756 0.00000
C458 C 0.24876 0.77412 0.82456 0.00000
C459 C 0.23377 0.80468 0.84289 0.00000
C460 C 0.31896 0.80639 0.30395 0.00000
C461 C 0.17741 0.70042 0.25415 0.00000
C462 C 0.20809 0.71971 0.27286 0.00000
C463 C 0.22041 0.74942 0.24546 0.00000
C464 C 0.20073 0.75917 0.19760 0.00000
C465 C 0.16927 0.73997 0.17884 0.00000
C466 C 0.15819 0.71044 0.20614 0.00000
H467 H 0.27795 0.78504 0.18911 0.00000
H468 H 0.24312 0.76123 0.35050 0.00000
H469 H 0.29717 0.79058 0.38126 0.00000
H470 H 0.34028 0.81888 0.31679 0.00000
H471 H 0.22110 0.71276 0.30483 0.00000
H472 H 0.20867 0.77865 0.17803 0.00000
H473 H 0.15558 0.74709 0.14760 0.00000
H474 H 0.13782 0.69721 0.19242 0.00000
C475 C 0.31332 0.80461 0.24711 0.00000
C476 C 0.28154 0.78616 0.22802 0.00000
C477 C 0.25472 0.76918 0.26629 0.00000
C478 C 0.26090 0.77179 0.32396 0.00000
C479 C 0.29294 0.78970 0.34247 0.00000
C480 C 0.55888 0.35549 0.15065 0.00000
C481 C 0.63373 0.22577 0.01534 0.00000
C482 C 0.61502 0.25445 0.03549 0.00000
C483 C 0.62152 0.26747 0.08932 0.00000
C484 C 0.64770 0.25029 0.12296 0.00000
C485 C 0.66717 0.22145 0.10251 0.00000
C486 C 0.65965 0.20885 0.04957 0.00000
H487 H 0.59248 0.28484 0.19346 0.00000
H488 H 0.60003 0.32290 0.03529 0.00000
H489 H 0.56476 0.36934 0.06816 0.00000
H490 H 0.54541 0.37472 0.16394 0.00000
H491 H 0.59742 0.26558 0.01254 0.00000
H492 H 0.65220 0.25816 0.15936 0.00000
H493 H 0.68541 0.21056 0.12472 0.00000
H494 H 0.67194 0.18901 0.03675 0.00000
C495 C 0.56696 0.33040 0.18761 0.00000
C496 C 0.58714 0.30188 0.16793 0.00000
C497 C 0.59965 0.29824 0.11027 0.00000
C498 C 0.59145 0.32437 0.07375 0.00000
C499 C 0.57080 0.35236 0.09349 0.00000
C500 C 0.56109 0.20073 0.74143 0.00000
C501 C 0.63348 0.26812 0.50548 0.00000
C502 C 0.61555 0.25914 0.55744 0.00000
C503 C 0.62132 0.22755 0.58129 0.00000
C504 C 0.64592 0.20481 0.55050 0.00000
C505 C 0.66462 0.21389 0.49815 0.00000
C506 C 0.65783 0.24507 0.47518 0.00000
H507 H 0.59068 0.16946 0.61975 0.00000
H508 H 0.60342 0.26371 0.67509 0.00000
H509 H 0.56942 0.24944 0.75990 0.00000
H510 H 0.54814 0.19492 0.77638 0.00000
H511 H 0.59899 0.27461 0.57741 0.00000
H512 H 0.64989 0.18339 0.56504 0.00000
H513 H 0.68184 0.19882 0.47845 0.00000
H514 H 0.66956 0.25067 0.43937 0.00000
C515 C 0.56726 0.17714 0.69984 0.00000
C516 C 0.58665 0.18572 0.64796 0.00000
C517 C 0.60030 0.21846 0.63725 0.00000
C518 C 0.59405 0.24185 0.68064 0.00000
C519 C 0.57416 0.23324 0.73168 0.00000
C520 C 0.40707 0.75972 0.03298 0.00000
C521 C 0.42409 0.66903 0.80373 0.00000
C522 C 0.42719 0.68686 0.85314 0.00000
C523 C 0.39374 0.70194 0.88172 0.00000
C524 C 0.35648 0.69863 0.85839 0.00000
C525 C 0.35301 0.68022 0.80872 0.00000
C526 C 0.38667 0.66608 0.78087 0.00000
H527 H 0.35644 0.75721 0.92097 0.00000
H528 H 0.44156 0.69345 0.96760 0.00000
H529 H 0.44980 0.72549 0.04732 0.00000
H530 H 0.40990 0.77217 0.06603 0.00000
H531 H 0.45241 0.68898 0.86809 0.00000
H532 H 0.33373 0.70880 0.87614 0.00000
H533 H 0.32779 0.67743 0.79413 0.00000
H534 H 0.38433 0.65456 0.74676 0.00000
C535 C 0.37958 0.76914 0.99544 0.00000
C536 C 0.37524 0.75056 0.94643 0.00000
C537 C 0.39866 0.72194 0.93455 0.00000
C538 C 0.42604 0.71271 0.97389 0.00000
C539 C 0.43064 0.73163 0.02197 0.00000
C540 C 0.95759 0.34872 0.84756 0.00000
C541 C 0.86526 0.22852 0.98850 0.00000
C542 C 0.88933 0.25373 0.96576 0.00000
C543 C 0.87869 0.27250 0.91882 0.00000
C544 C 0.84257 0.26481 0.89485 0.00000
C545 C 0.81777 0.23958 0.91814 0.00000
C546 C 0.82937 0.22107 0.96390 0.00000
H547 H 0.89485 0.29235 0.81153 0.00000
H548 H 0.92670 0.31591 0.96822 0.00000
H549 H 0.97034 0.35569 0.92931 0.00000
H550 H 0.97465 0.36540 0.83217 0.00000
H551 H 0.91353 0.25847 0.98214 0.00000
H552 H 0.83496 0.27662 0.86304 0.00000
H553 H 0.79316 0.23513 0.90272 0.00000
H554 H 0.81314 0.20358 0.97833 0.00000
C555 C 0.93536 0.32986 0.81276 0.00000
C556 C 0.90988 0.30515 0.83563 0.00000
C557 C 0.90633 0.29911 0.89439 0.00000
C558 C 0.92896 0.31897 0.92884 0.00000
C559 C 0.95470 0.34307 0.90568 0.00000
C560 C 0.08113 0.78857 0.00653 0.00000
C561 C 0.06928 0.66525 0.18669 0.00000
C562 C 0.06633 0.69352 0.15398 0.00000
C563 C 0.08983 0.69805 0.10311 0.00000
C564 C 0.11706 0.67289 0.08608 0.00000
C565 C 0.11983 0.64397 0.11864 0.00000
C566 C 0.09674 0.64043 0.16919 0.00000
H567 H 0.14532 0.73317 0.04170 0.00000
H568 H 0.02662 0.73685 0.08414 0.00000
H569 H 0.02261 0.78624 0.03438 0.00000
H570 H 0.07913 0.80818 0.98536 0.00000
H571 H 0.04808 0.71022 0.16611 0.00000
H572 H 0.13350 0.67543 0.05271 0.00000
H573 H 0.13741 0.62688 0.10623 0.00000
H574 H 0.09954 0.62140 0.19160 0.00000
C575 C 0.11743 0.77291 0.00894 0.00000
C576 C 0.12038 0.74367 0.04021 0.00000
C577 C 0.08649 0.72965 0.06961 0.00000
C578 C 0.04983 0.74592 0.06581 0.00000
C579 C 0.04730 0.77524 0.03545 0.00000
C580 C 0.84798 0.29121 0.45032 0.00000
C581 C 0.94500 0.17478 0.30606 0.00000
C582 C 0.91957 0.19869 0.33011 0.00000
C583 C 0.93082 0.21933 0.37443 0.00000
C584 C 0.96903 0.21493 0.39436 0.00000
C585 C 0.99516 0.19104 0.36969 0.00000
C586 C 0.98299 0.17062 0.32664 0.00000
H587 H 0.91860 0.24061 0.48159 0.00000
H588 H 0.87554 0.25778 0.32884 0.00000
H589 H 0.82994 0.29516 0.37044 0.00000
H590 H 0.83005 0.30696 0.46670 0.00000
H591 H 0.89400 0.20122 0.31645 0.00000
H592 H 0.97715 0.22805 0.42439 0.00000
H593 H 0.02105 0.18881 0.38233 0.00000
H594 H 0.00010 0.15404 0.31135 0.00000
C595 C 0.87411 0.27495 0.48318 0.00000
C596 C 0.90089 0.25164 0.45882 0.00000
C597 C 0.90178 0.24441 0.40049 0.00000
C598 C 0.87517 0.26166 0.36797 0.00000
C599 C 0.84821 0.28434 0.39268 0.00000
C600 C 0.46242 0.84572 0.34542 0.00000
C601 C 0.36528 0.72941 0.48990 0.00000
C602 C 0.39074 0.75327 0.46577 0.00000
C603 C 0.37946 0.77399 0.42157 0.00000
C604 C 0.34117 0.76971 0.40183 0.00000
C605 C 0.31500 0.74587 0.42659 0.00000
C606 C 0.32720 0.72537 0.46952 0.00000
H607 H 0.39149 0.79535 0.31441 0.00000
H608 H 0.43504 0.81224 0.46694 0.00000
H609 H 0.48070 0.84954 0.42519 0.00000
H610 H 0.48038 0.86144 0.32898 0.00000
H611 H 0.41637 0.75572 0.47930 0.00000
H612 H 0.33302 0.78289 0.37189 0.00000
H613 H 0.28906 0.74372 0.41408 0.00000
H614 H 0.30993 0.70882 0.48486 0.00000
C615 C 0.43612 0.82956 0.31267 0.00000
C616 C 0.40930 0.80631 0.33712 0.00000
C617 C 0.40854 0.79901 0.39542 0.00000
C618 C 0.43532 0.81616 0.42782 0.00000
C619 C 0.46232 0.83880 0.40303 0.00000
C620 C 0.03173 0.84106 0.65865 0.00000
C621 C 0.13447 0.73054 0.50814 0.00000
C622 C 0.10745 0.75243 0.53452 0.00000
C623 C 0.11900 0.77578 0.57470 0.00000
C624 C 0.15924 0.77625 0.58799 0.00000
C625 C 0.18689 0.75443 0.56088 0.00000
C626 C 0.17450 0.73125 0.52208 0.00000
H627 H 0.11231 0.79967 0.68074 0.00000
H628 H 0.05438 0.80620 0.53673 0.00000
H629 H 0.00667 0.83997 0.58292 0.00000
H630 H 0.01281 0.85537 0.67676 0.00000
H631 H 0.08057 0.75169 0.52534 0.00000
H632 H 0.16769 0.79126 0.61520 0.00000
H633 H 0.21396 0.75546 0.56898 0.00000
H634 H 0.19296 0.71607 0.50522 0.00000
C635 C 0.06291 0.82900 0.68759 0.00000
C636 C 0.09114 0.80784 0.66062 0.00000
C637 C 0.08838 0.79852 0.60361 0.00000
C638 C 0.05660 0.81151 0.57502 0.00000
C639 C 0.02832 0.83206 0.60240 0.00000
loop_
_geom_bond_atom_site_label_1
_geom_bond_atom_site_label_2
_geom_bond_distance
_geom_bond_site_symmetry_2
_ccdc_geom_bond_type
Dy0 O3 2.217 . S
Dy0 O8 2.314 . S
Dy0 O11 2.398 . S
Dy0 O12 2.546 . S
Dy0 O13 2.239 . S
Dy1 O9 2.280 . S
Dy1 O15 2.460 . S
Dy1 O16 2.505 . S
Dy1 O17 2.338 . S
Dy1 O18 2.503 . S
Dy1 O19 2.323 . S
O2 C14 1.248 . D
O3 C14 1.239 . S
C4 O17 1.260 . A
C4 O18 1.256 . A
C5 O13 1.261 . A
C5 O19 1.255 . A
C6 O15 1.252 . A
C6 O16 1.273 . A
C7 O8 1.257 . A
C7 O9 1.260 . A
C10 O11 1.263 . A
C10 O12 1.267 . A
Dy20 O23 2.217 . S
Dy20 O28 2.314 . S
Dy20 O31 2.398 . S
Dy20 O32 2.546 . S
Dy20 O33 2.239 . S
Dy21 O29 2.280 . S
Dy21 O35 2.460 . S
Dy21 O36 2.505 . S
Dy21 O37 2.338 . S
Dy21 O38 2.503 . S
Dy21 O39 2.323 . S
O22 C34 1.248 . D
O23 C34 1.239 . S
C24 O37 1.260 . A
C24 O38 1.256 . A
C25 O33 1.261 . A
C25 O39 1.255 . A
C26 O35 1.252 . A
C26 O36 1.273 . A
C27 O28 1.257 . A
C27 O29 1.260 . A
C30 O31 1.263 . A
C30 O32 1.267 . A
Dy40 O43 2.217 . S
Dy40 O48 2.314 . S
Dy40 O51 2.398 . S
Dy40 O52 2.546 . S
Dy40 O53 2.239 . S
Dy41 O49 2.280 . S
Dy41 O55 2.460 . S
Dy41 O56 2.505 . S
Dy41 O57 2.338 . S
Dy41 O58 2.503 . S
Dy41 O59 2.323 . S
O42 C54 1.248 . D
O43 C54 1.239 . S
C44 O57 1.260 . A
C44 O58 1.256 . A
C45 O53 1.261 . A
C45 O59 1.255 . A
C46 O55 1.252 . A
C46 O56 1.273 . A
C47 O48 1.257 . A
C47 O49 1.260 . A
C50 O51 1.263 . A
C50 O52 1.267 . A
Dy60 O63 2.217 . S
Dy60 O68 2.314 . S
Dy60 O71 2.398 . S
Dy60 O72 2.546 . S
Dy60 O73 2.239 . S
Dy61 O69 2.280 . S
Dy61 O75 2.460 . S
Dy61 O76 2.505 . S
Dy61 O77 2.338 . S
Dy61 O78 2.503 . S
Dy61 O79 2.323 . S
O62 C74 1.248 . D
O63 C74 1.239 . S
C64 O77 1.260 . A
C64 O78 1.256 . A
C65 O73 1.261 . A
C65 O79 1.255 . A
C66 O75 1.252 . A
C66 O76 1.273 . A
C67 O68 1.257 . A
C67 O69 1.260 . A
C70 O71 1.263 . A
C70 O72 1.267 . A
Dy80 O83 2.217 . S
Dy80 O88 2.314 . S
Dy80 O91 2.398 . S
Dy80 O92 2.546 . S
Dy80 O93 2.239 . S
Dy81 O89 2.280 . S
Dy81 O95 2.460 . S
Dy81 O96 2.505 . S
Dy81 O97 2.338 . S
Dy81 O98 2.503 . S
Dy81 O99 2.323 . S
O82 C94 1.248 . D
O83 C94 1.239 . S
C84 O97 1.260 . A
C84 O98 1.256 . A
C85 O93 1.261 . A
C85 O99 1.255 . A
C86 O95 1.252 . A
C86 O96 1.273 . A
C87 O88 1.257 . A
C87 O89 1.260 . A
C90 O91 1.263 . A
C90 O92 1.267 . A
Dy100 O103 2.217 . S
Dy100 O108 2.314 . S
Dy100 O111 2.398 . S
Dy100 O112 2.546 . S
Dy100 O113 2.239 . S
Dy101 O109 2.280 . S
Dy101 O115 2.460 . S
Dy101 O116 2.505 . S
Dy101 O117 2.338 . S
Dy101 O118 2.503 . S
Dy101 O119 2.323 . S
O102 C114 1.248 . D
O103 C114 1.239 . S
C104 O117 1.260 . A
C104 O118 1.256 . A
C105 O113 1.261 . A
C105 O119 1.255 . A
C106 O115 1.252 . A
C106 O116 1.273 . A
C107 O108 1.257 . A
C107 O109 1.260 . A
C110 O111 1.263 . A
C110 O112 1.267 . A
Dy120 O123 2.217 . S
Dy120 O128 2.314 . S
Dy120 O131 2.398 . S
Dy120 O132 2.546 . S
Dy120 O133 2.239 . S
Dy121 O129 2.280 . S
Dy121 O135 2.460 . S
Dy121 O136 2.505 . S
Dy121 O137 2.338 . S
Dy121 O138 2.503 . S
Dy121 O139 2.323 . S
O122 C134 1.248 . D
O123 C134 1.239 . S
C124 O137 1.260 . A
C124 O138 1.256 . A
C125 O133 1.261 . A
C125 O139 1.255 . A
C126 O135 1.252 . A
C126 O136 1.273 . A
C127 O128 1.257 . A
C127 O129 1.260 . A
C130 O131 1.263 . A
C130 O132 1.267 . A
Dy140 O143 2.217 . S
Dy140 O148 2.314 . S
Dy140 O151 2.398 . S
Dy140 O152 2.546 . S
Dy140 O153 2.239 . S
Dy141 O149 2.280 . S
Dy141 O155 2.460 . S
Dy141 O156 2.505 . S
Dy141 O157 2.338 . S
Dy141 O158 2.503 . S
Dy141 O159 2.323 . S
O142 C154 1.248 . D
O143 C154 1.239 . S
C144 O157 1.260 . A
C144 O158 1.256 . A
C145 O153 1.261 . A
C145 O159 1.255 . A
C146 O155 1.252 . A
C146 O156 1.273 . A
C147 O148 1.257 . A
C147 O149 1.260 . A
C150 O151 1.263 . A
C150 O152 1.267 . A
C160 H170 0.930 . S
C160 C175 1.360 . A
C160 C179 1.379 . A
C161 C162 1.369 . A
C161 C166 1.388 . A
C162 C163 1.395 . A
C162 H171 0.931 . S
C163 C164 1.390 . A
C163 C177 1.491 . S
C164 C165 1.387 . A
C164 H172 0.931 . S
C165 C166 1.377 . A
C165 H173 0.931 . S
C166 H174 0.930 . S
H167 C176 0.929 . S
H168 C178 0.930 . S
H169 C179 0.930 . S
C175 C176 1.382 . A
C176 C177 1.397 . A
C177 C178 1.385 . A
C178 C179 1.373 . A
C180 H190 0.930 . S
C180 C195 1.360 . A
C180 C199 1.379 1_556 A
C181 C182 1.369 . A
C181 C186 1.388 . A
C182 C183 1.395 1_554 A
C182 H191 0.931 . S
C183 C184 1.390 . A
C183 C197 1.491 . S
C184 C185 1.387 . A
C184 H192 0.931 . S
C185 C186 1.377 1_556 A
C185 H193 0.931 . S
C186 H194 0.930 . S
H187 C196 0.929 . S
H188 C198 0.930 . S
H189 C199 0.930 . S
C195 C196 1.382 . A
C196 C197 1.397 . A
C197 C198 1.385 1_556 A
C198 C199 1.373 . A
C200 H210 0.930 . S
C200 C215 1.360 . A
C200 C219 1.379 . A
C201 C202 1.369 . A
C201 C206 1.388 . A
C202 C203 1.395 . A
C202 H211 0.931 . S
C203 C204 1.390 . A
C203 C217 1.491 . S
C204 C205 1.387 . A
C204 H212 0.931 . S
C205 C206 1.377 . A
C205 H213 0.931 . S
C206 H214 0.930 . S
H207 C216 0.929 . S
H208 C218 0.930 . S
H209 C219 0.930 . S
C215 C216 1.382 . A
C216 C217 1.397 . A
C217 C218 1.385 . A
C218 C219 1.373 . A
C220 H230 0.930 . S
C220 C235 1.360 . A
C220 C239 1.379 1_554 A
C221 C222 1.369 . A
C221 C226 1.388 . A
C222 C223 1.395 1_556 A
C222 H231 0.931 . S
C223 C224 1.390 . A
C223 C237 1.491 . S
C224 C225 1.387 . A
C224 H232 0.931 . S
C225 C226 1.377 1_554 A
C225 H233 0.931 . S
C226 H234 0.930 . S
H227 C236 0.929 . S
H228 C238 0.930 . S
H229 C239 0.930 . S
C235 C236 1.382 . A
C236 C237 1.397 . A
C237 C238 1.385 1_554 A
C238 C239 1.373 . A
C240 H250 0.930 . S
C240 C255 1.360 . A
C240 C259 1.379 . A
C241 C242 1.369 . A
C241 C246 1.388 . A
C242 C243 1.395 . A
C242 H251 0.931 . S
C243 C244 1.390 . A
C243 C257 1.491 1_554 S
C244 C245 1.387 . A
C244 H252 0.931 . S
C245 C246 1.377 . A
C245 H253 0.931 . S
C246 H254 0.930 . S
H247 C256 0.929 . S
H248 C258 0.930 1_554 S
H249 C259 0.930 . S
C255 C256 1.382 . A
C256 C257 1.397 . A
C257 C258 1.385 . A
C258 C259 1.373 . A
C260 H270 0.930 . S
C260 C275 1.360 . A
C260 C279 1.379 . A
C261 C262 1.369 . A
C261 C266 1.388 . A
C262 C263 1.395 1_565 A
C262 H271 0.931 . S
C263 C264 1.390 . A
C263 C277 1.491 . S
C264 C265 1.387 . A
C264 H272 0.931 . S
C265 C266 1.377 1_545 A
C265 H273 0.931 . S
C266 H274 0.930 . S
H267 C276 0.929 . S
H268 C278 0.930 . S
H269 C279 0.930 . S
C275 C276 1.382 . A
C276 C277 1.397 . A
C277 C278 1.385 . A
C278 C279 1.373 . A
C280 H290 0.930 . S
C280 C295 1.360 . A
C280 C299 1.379 1_655 A
C281 C282 1.369 . A
C281 C286 1.388 . A
C282 C283 1.395 . A
C282 H291 0.931 . S
C283 C284 1.390 1_455 A
C283 C297 1.491 1_554 S
C284 C285 1.387 . A
C284 H292 0.931 1_554 S
C285 C286 1.377 1_655 A
C285 H293 0.931 . S
C286 H294 0.930 . S
H287 C296 0.929 . S
H288 C298 0.930 . S
H289 C299 0.930 . S
C295 C296 1.382 . A
C296 C297 1.397 1_655 A
C297 C298 1.385 . A
C298 C299 1.373 . A
C300 H310 0.930 . S
C300 C315 1.360 . A
C300 C319 1.379 1_655 A
C301 C302 1.369 . A
C301 C306 1.388 . A
C302 C303 1.395 1_455 A
C302 H311 0.931 . S
C303 C304 1.390 . A
C303 C317 1.491 1_565 S
C304 C305 1.387 . A
C304 H312 0.931 . S
C305 C306 1.377 1_655 A
C305 H313 0.931 . S
C306 H314 0.930 . S
H307 C316 0.929 1_565 S
H308 C318 0.930 . S
H309 C319 0.930 . S
C315 C316 1.382 . A
C316 C317 1.397 . A
C317 C318 1.385 1_655 A
C318 C319 1.373 . A
C320 H330 0.930 . S
C320 C335 1.360 . A
C320 C339 1.379 . A
C321 C322 1.369 . A
C321 C326 1.388 . A
C322 C323 1.395 . A
C322 H331 0.931 . S
C323 C324 1.390 . A
C323 C337 1.491 . S
C324 C325 1.387 . A
C324 H332 0.931 . S
C325 C326 1.377 . A
C325 H333 0.931 . S
C326 H334 0.930 . S
H327 C336 0.929 . S
H328 C338 0.930 . S
H329 C339 0.930 . S
C335 C336 1.382 . A
C336 C337 1.397 . A
C337 C338 1.385 . A
C338 C339 1.373 . A
C340 H350 0.930 . S
C340 C355 1.360 . A
C340 C359 1.379 . A
C341 C342 1.369 . A
C341 C346 1.388 . A
C342 C343 1.395 . A
C342 H351 0.931 . S
C343 C344 1.390 . A
C343 C357 1.491 1_546 S
C344 C345 1.387 . A
C344 H352 0.931 1_556 S
C345 C346 1.377 . A
C345 H353 0.931 . S
C346 H354 0.930 . S
H347 C356 0.910 1_545 S
H348 C358 0.930 . S
H349 C359 0.930 1_556 S
C355 C356 1.382 . A
C356 C357 1.397 . A
C357 C358 1.385 1_554 A
C358 C359 1.373 1_556 A
C360 H370 0.930 . S
C360 C375 1.360 . A
C360 C379 1.379 1_655 A
C361 C362 1.369 . A
C361 C366 1.388 . A
C362 C363 1.395 . A
C362 H371 0.931 . S
C363 C364 1.390 . A
C363 C377 1.491 . S
C364 C365 1.387 . A
C364 H372 0.931 . S
C365 C366 1.377 . A
C365 H373 0.931 . S
C366 H374 0.930 . S
H367 C376 0.929 . S
H368 C378 0.930 . S
H369 C379 0.930 . S
C375 C376 1.382 . A
C376 C377 1.397 1_655 A
C377 C378 1.385 . A
C378 C379 1.373 . A
C380 H390 0.930 . S
C380 C395 1.360 . A
C380 C399 1.379 1_565 A
C381 C382 1.369 . A
C381 C386 1.388 . A
C382 C383 1.395 . A
C382 H391 0.931 . S
C383 C384 1.390 1_545 A
C383 C397 1.491 1_544 S
C384 C385 1.387 . A
C384 H392 0.931 . S
C385 C386 1.377 1_565 A
C385 H393 0.931 . S
C386 H394 0.930 . S
H387 C396 0.929 . S
H388 C398 0.930 . S
H389 C399 0.930 . S
C395 C396 1.382 . A
C396 C397 1.397 1_455 A
C397 C398 1.385 1_565 A
C398 C399 1.373 1_655 A
C400 H410 0.930 . S
C400 C415 1.360 . A
C400 C419 1.379 . A
C401 C402 1.369 . A
C401 C406 1.388 . A
C402 C403 1.395 . A
C402 H411 0.931 . S
C403 C404 1.390 . A
C403 C417 1.491 . S
C404 C405 1.387 . A
C404 H412 0.931 . S
C405 C406 1.377 . A
C405 H413 0.931 . S
C406 H414 0.930 . S
H407 C416 0.929 . S
H408 C418 0.930 . S
H409 C419 0.930 . S
C415 C416 1.382 . A
C416 C417 1.397 . A
C417 C418 1.385 . A
C418 C419 1.373 . A
C420 H430 0.930 . S
C420 C435 1.360 . A
C420 C439 1.379 . A
C421 C422 1.369 . A
C421 C426 1.388 . A
C422 C423 1.395 . A
C422 H431 0.931 . S
C423 C424 1.390 . A
C423 C437 1.491 . S
C424 C425 1.387 . A
C424 H432 0.931 . S
C425 C426 1.377 . A
C425 H433 0.931 . S
C426 H434 0.930 . S
H427 C436 0.929 . S
H428 C438 0.930 . S
H429 C439 0.930 . S
C435 C436 1.382 . A
C436 C437 1.397 . A
C437 C438 1.385 . A
C438 C439 1.373 . A
C440 H450 0.930 . S
C440 C455 1.360 . A
C440 C459 1.379 . A
C441 C442 1.369 . A
C441 C446 1.388 . A
C442 C443 1.395 . A
C442 H451 0.931 . S
C443 C444 1.390 . A
C443 C457 1.491 . S
C444 C445 1.387 . A
C444 H452 0.931 . S
C445 C446 1.377 . A
C445 H453 0.931 . S
C446 H454 0.930 . S
H447 C456 0.929 . S
H448 C458 0.930 . S
H449 C459 0.930 . S
C455 C456 1.382 . A
C456 C457 1.397 . A
C457 C458 1.385 . A
C458 C459 1.373 . A
C460 H470 0.930 . S
C460 C475 1.360 . A
C460 C479 1.379 . A
C461 C462 1.369 . A
C461 C466 1.388 . A
C462 C463 1.395 . A
C462 H471 0.931 . S
C463 C464 1.390 . A
C463 C477 1.491 . S
C464 C465 1.387 . A
C464 H472 0.931 . S
C465 C466 1.377 . A
C465 H473 0.931 . S
C466 H474 0.930 . S
H467 C476 0.929 . S
H468 C478 0.930 . S
H469 C479 0.930 . S
C475 C476 1.382 . A
C476 C477 1.397 . A
C477 C478 1.385 . A
C478 C479 1.373 . A
C480 H490 0.930 . S
C480 C495 1.360 . A
C480 C499 1.379 . A
C481 C482 1.369 . A
C481 C486 1.388 . A
C482 C483 1.395 . A
C482 H491 0.931 . S
C483 C484 1.390 . A
C483 C497 1.491 . S
C484 C485 1.387 . A
C484 H492 0.931 . S
C485 C486 1.377 . A
C485 H493 0.931 . S
C486 H494 0.930 . S
H487 C496 0.929 . S
H488 C498 0.930 . S
H489 C499 0.930 . S
C495 C496 1.382 . A
C496 C497 1.397 . A
C497 C498 1.385 . A
C498 C499 1.373 . A
C500 H510 0.930 . S
C500 C515 1.360 . A
C500 C519 1.379 . A
C501 C502 1.369 . A
C501 C506 1.388 . A
C502 C503 1.395 . A
C502 H511 0.931 . S
C503 C504 1.390 . A
C503 C517 1.491 . S
C504 C505 1.387 . A
C504 H512 0.931 . S
C505 C506 1.377 . A
C505 H513 0.931 . S
C506 H514 0.930 . S
H507 C516 0.929 . S
H508 C518 0.930 . S
H509 C519 0.930 . S
C515 C516 1.382 . A
C516 C517 1.397 . A
C517 C518 1.385 . A
C518 C519 1.373 . A
C520 H530 0.930 . S
C520 C535 1.360 1_554 A
C520 C539 1.379 . A
C521 C522 1.369 . A
C521 C526 1.388 . A
C522 C523 1.395 . A
C522 H531 0.931 . S
C523 C524 1.390 . A
C523 C537 1.491 . S
C524 C525 1.387 . A
C524 H532 0.931 . S
C525 C526 1.377 . A
C525 H533 0.931 . S
C526 H534 0.930 . S
H527 C536 0.929 . S
H528 C538 0.930 . S
H529 C539 0.930 . S
C535 C536 1.382 . A
C536 C537 1.397 . A
C537 C538 1.385 . A
C538 C539 1.373 1_556 A
C540 H550 0.930 . S
C540 C555 1.360 . A
C540 C559 1.379 . A
C541 C542 1.369 . A
C541 C546 1.388 . A
C542 C543 1.395 . A
C542 H551 0.931 . S
C543 C544 1.390 . A
C543 C557 1.491 . S
C544 C545 1.387 . A
C544 H552 0.931 . S
C545 C546 1.377 . A
C545 H553 0.931 . S
C546 H554 0.930 . S
H547 C556 0.929 . S
H548 C558 0.930 . S
H549 C559 0.930 . S
C555 C556 1.382 . A
C556 C557 1.397 . A
C557 C558 1.385 . A
C558 C559 1.373 . A
C560 H570 0.930 1_554 S
C560 C575 1.360 . A
C560 C579 1.379 . A
C561 C562 1.369 . A
C561 C566 1.388 . A
C562 C563 1.395 . A
C562 H571 0.931 . S
C563 C564 1.390 . A
C563 C577 1.491 . S
C564 C565 1.387 . A
C564 H572 0.931 . S
C565 C566 1.377 . A
C565 H573 0.931 . S
C566 H574 0.930 . S
H567 C576 0.929 . S
H568 C578 0.930 . S
H569 C579 0.930 . S
C575 C576 1.382 . A
C576 C577 1.397 . A
C577 C578 1.385 . A
C578 C579 1.373 . A
C580 H590 0.930 . S
C580 C595 1.360 . A
C580 C599 1.379 . A
C581 C582 1.369 . A
C581 C586 1.388 . A
C582 C583 1.395 . A
C582 H591 0.931 . S
C583 C584 1.390 . A
C583 C597 1.491 . S
C584 C585 1.387 . A
C584 H592 0.931 . S
C585 C586 1.377 . A
C585 H593 0.931 1_655 S
C586 H594 0.927 1_655 S
H587 C596 0.929 . S
H588 C598 0.930 . S
H589 C599 0.930 . S
C595 C596 1.382 . A
C596 C597 1.397 . A
C597 C598 1.385 . A
C598 C599 1.373 . A
C600 H610 0.930 . S
C600 C615 1.360 . A
C600 C619 1.379 . A
C601 C602 1.369 . A
C601 C606 1.388 . A
C602 C603 1.395 . A
C602 H611 0.931 . S
C603 C604 1.390 . A
C603 C617 1.491 . S
C604 C605 1.387 . A
C604 H612 0.931 . S
C605 C606 1.377 . A
C605 H613 0.931 . S
C606 H614 0.930 . S
H607 C616 0.929 . S
H608 C618 0.930 . S
H609 C619 0.930 . S
C615 C616 1.382 . A
C616 C617 1.397 . A
C617 C618 1.385 . A
C618 C619 1.373 . A
C620 H630 0.930 . S
C620 C635 1.360 . A
C620 C639 1.379 . A
C621 C622 1.369 . A
C621 C626 1.388 . A
C622 C623 1.395 . A
C622 H631 0.931 . S
C623 C624 1.390 . A
C623 C637 1.491 . S
C624 C625 1.387 . A
C624 H632 0.931 . S
C625 C626 1.377 . A
C625 H633 0.931 . S
C626 H634 0.930 . S
H627 C636 0.929 . S
H628 C638 0.930 . S
H629 C639 0.930 . S
C635 C636 1.382 . A
C636 C637 1.397 . A
C637 C638 1.385 . A
C638 C639 1.373 . A
C161 C5 1.615 . S
C175 C65 1.568 . S
C181 C105 1.613 . S
C195 C25 1.606 . S
C201 C85 1.467 . S
C215 C45 1.561 . S
C221 C145 1.613 . S
C235 C125 1.574 . S
C241 C6 2.520 . S
C255 C46 2.626 . S
C261 C126 2.488 . S
C275 C26 2.591 . S
C281 C86 2.592 . S
C295 C66 2.592 . S
C301 C146 2.519 . S
C315 C106 2.625 . S
C321 C4 1.097 . S
C335 C44 1.225 . S
C341 C24 1.320 . S
C355 C124 1.248 . S
C361 C84 1.133 . S
C375 C64 1.277 . S
C381 C104 1.122 . S
C395 C144 1.270 . S
C401 C114 0.477 . S
C415 C14 0.438 . S
C421 C34 0.484 . S
C435 C74 0.438 . S
C441 C54 0.380 . S
C455 C154 0.080 . S
C461 C94 0.550 . S
C475 C134 0.426 . S
C481 C30 1.380 1_554 S
C495 C7 1.272 . S
C501 C10 1.250 . S
C515 C27 1.138 . S
C521 C47 1.063 . S
C535 C130 1.103 1_556 S
C541 C110 1.340 1_556 S
C555 C67 1.300 . S
C561 C87 1.247 . S
C575 C150 1.138 1_554 S
C581 C107 1.329 . S
C595 C70 1.328 . S
C601 C50 1.322 . S
C615 C127 1.307 . S
C621 C90 1.295 . S
C635 C147 1.315 . S
