# Generated by pormake.
# Topology wix, (3)-cn, num edge types: 1
# Building blocks:
#     Node 0, Type 0, BuildingBlock: N117, # of connection points: 3
#     Node 1, Type 0, BuildingBlock: N117, # of connection points: 3
#     Node 2, Type 0, BuildingBlock: N117, # of connection points: 3
#     Node 3, Type 0, BuildingBlock: N117, # of connection points: 3
#     Node 4, Type 0, BuildingBlock: N117, # of connection points: 3
#     Node 5, Type 0, BuildingBlock: N117, # of connection points: 3
#     Node 6, Type 0, BuildingBlock: N117, # of connection points: 3
#     Node 7, Type 0, BuildingBlock: N117, # of connection points: 3
#     Node 8, Type 0, BuildingBlock: N117, # of connection points: 3
#     Node 9, Type 0, BuildingBlock: N117, # of connection points: 3
#     Node 10, Type 0, BuildingBlock: N117, # of connection points: 3
#     Node 11, Type 0, BuildingBlock: N117, # of connection points: 3
#     Edge 12, Type (0, 0), BuildingBlock: E208, # of connection points: 2
#     Edge 13, Type (0, 0), BuildingBlock: E208, # of connection points: 2
#     Edge 14, Type (0, 0), BuildingBlock: E208, # of connection points: 2
#     Edge 15, Type (0, 0), BuildingBlock: E208, # of connection points: 2
#     Edge 16, Type (0, 0), BuildingBlock: E208, # of connection points: 2
#     Edge 17, Type (0, 0), BuildingBlock: E208, # of connection points: 2
#     Edge 18, Type (0, 0), BuildingBlock: E208, # of connection points: 2
#     Edge 19, Type (0, 0), BuildingBlock: E208, # of connection points: 2
#     Edge 20, Type (0, 0), BuildingBlock: E208, # of connection points: 2
#     Edge 21, Type (0, 0), BuildingBlock: E208, # of connection points: 2
#     Edge 22, Type (0, 0), BuildingBlock: E208, # of connection points: 2
#     Edge 23, Type (0, 0), BuildingBlock: E208, # of connection points: 2
#     Edge 24, Type (0, 0), BuildingBlock: E208, # of connection points: 2
#     Edge 25, Type (0, 0), BuildingBlock: E208, # of connection points: 2
#     Edge 26, Type (0, 0), BuildingBlock: E208, # of connection points: 2
#     Edge 27, Type (0, 0), BuildingBlock: E208, # of connection points: 2
#     Edge 28, Type (0, 0), BuildingBlock: E208, # of connection points: 2
#     Edge 29, Type (0, 0), BuildingBlock: E208, # of connection points: 2
# Relax obj value: 0.009
# Max RMSD: 0.007
# Mean RMSD: 0.007
data_wix+N117+E208
_symmetry_space_group_name_H-M    P1
_symmetry_Int_Tables_number       1
_symmetry_cell_setting            triclinic
loop_
_symmetry_equiv_pos_as_xyz
'x, y, z'
_cell_length_a     57.612
_cell_length_b     57.610
_cell_length_c     48.419
_cell_angle_alpha  90.001
_cell_angle_beta   89.999
_cell_angle_gamma  119.984
loop_
_atom_site_label
_atom_site_type_symbol
_atom_site_fract_x
_atom_site_fract_y
_atom_site_fract_z
_atom_type_partial_charge
H0 H 0.22577 0.65885 0.39590 0.00000
H1 H 0.25815 0.66055 0.36383 0.00000
C2 C 0.18343 0.62555 0.45713 0.00000
H3 H 0.17049 0.60027 0.35306 0.00000
H4 H 0.20047 0.60721 0.31919 0.00000
Cd5 Cd 0.16502 0.63153 0.40807 0.00000
O6 O 0.16389 0.60522 0.44661 0.00000
O7 O 0.19520 0.64864 0.44533 0.00000
C8 C 0.22025 0.64705 0.38104 0.00000
C9 C 0.23998 0.64900 0.36078 0.00000
C10 C 0.23216 0.63495 0.33919 0.00000
C11 C 0.12189 0.60498 0.37236 0.00000
O12 O 0.12560 0.59054 0.39181 0.00000
O13 O 0.13894 0.62857 0.37238 0.00000
C14 C 0.18825 0.61370 0.35533 0.00000
C15 C 0.20618 0.61716 0.33543 0.00000
N16 N 0.19515 0.62908 0.37852 0.00000
H17 H 0.56697 0.22584 0.56257 0.00000
H18 H 0.59765 0.25820 0.53049 0.00000
C19 C 0.55792 0.18349 0.62380 0.00000
H20 H 0.57023 0.17052 0.51973 0.00000
H21 H 0.59328 0.20050 0.48585 0.00000
Cd22 Cd 0.53352 0.16509 0.57474 0.00000
O23 O 0.55868 0.16393 0.61328 0.00000
O24 O 0.54660 0.19527 0.61200 0.00000
C25 C 0.57324 0.22031 0.54770 0.00000
C26 C 0.59102 0.24003 0.52744 0.00000
C27 C 0.59724 0.23220 0.50586 0.00000
C28 C 0.51692 0.12195 0.53902 0.00000
O29 O 0.53507 0.12564 0.55847 0.00000
O30 O 0.51040 0.13902 0.53905 0.00000
C31 C 0.57456 0.18828 0.52199 0.00000
C32 C 0.58904 0.20621 0.50210 0.00000
N33 N 0.56610 0.19520 0.54519 0.00000
H34 H 0.56701 0.34114 0.60409 0.00000
H35 H 0.59768 0.33944 0.63617 0.00000
C36 C 0.55795 0.37444 0.54286 0.00000
H37 H 0.57027 0.39971 0.64693 0.00000
H38 H 0.59332 0.39278 0.68081 0.00000
Cd39 Cd 0.53356 0.36846 0.59192 0.00000
O40 O 0.55873 0.39477 0.55339 0.00000
O41 O 0.54664 0.35135 0.55466 0.00000
C42 C 0.57327 0.35293 0.61896 0.00000
C43 C 0.59106 0.35099 0.63922 0.00000
C44 C 0.59728 0.36504 0.66081 0.00000
C45 C 0.51696 0.39500 0.62764 0.00000
O46 O 0.53511 0.40945 0.60819 0.00000
O47 O 0.51044 0.37141 0.62761 0.00000
C48 C 0.57460 0.38629 0.64467 0.00000
C49 C 0.58907 0.38282 0.66457 0.00000
N50 N 0.56613 0.37091 0.62147 0.00000
H51 H 0.22582 0.56697 0.77076 0.00000
H52 H 0.25817 0.59764 0.80284 0.00000
C53 C 0.18347 0.55791 0.70953 0.00000
H54 H 0.17050 0.57022 0.81360 0.00000
H55 H 0.20047 0.59328 0.84748 0.00000
Cd56 Cd 0.16506 0.53352 0.75859 0.00000
O57 O 0.16391 0.55868 0.72005 0.00000
O58 O 0.19525 0.54659 0.72133 0.00000
C59 C 0.22028 0.57323 0.78563 0.00000
C60 C 0.24001 0.59102 0.80589 0.00000
C61 C 0.23217 0.59724 0.82748 0.00000
C62 C 0.12193 0.51691 0.79431 0.00000
O63 O 0.12562 0.53506 0.77485 0.00000
O64 O 0.13900 0.51039 0.79428 0.00000
C65 C 0.18826 0.57456 0.81134 0.00000
C66 C 0.20619 0.58903 0.83123 0.00000
N67 N 0.19518 0.56609 0.78814 0.00000
H68 H 0.77417 0.43299 0.27075 0.00000
H69 H 0.74180 0.40232 0.30283 0.00000
C70 C 0.81652 0.44203 0.20952 0.00000
H71 H 0.82947 0.42972 0.31359 0.00000
H72 H 0.79950 0.40667 0.34747 0.00000
Cd73 Cd 0.83492 0.46643 0.25858 0.00000
O74 O 0.83607 0.44126 0.22005 0.00000
O75 O 0.80474 0.45335 0.22132 0.00000
C76 C 0.77969 0.42672 0.28562 0.00000
C77 C 0.75997 0.40894 0.30588 0.00000
C78 C 0.76780 0.40272 0.32747 0.00000
C79 C 0.87805 0.48303 0.29430 0.00000
O80 O 0.87436 0.46487 0.27485 0.00000
O81 O 0.86099 0.48955 0.29427 0.00000
C82 C 0.81171 0.42539 0.31133 0.00000
C83 C 0.79378 0.41092 0.33123 0.00000
N84 N 0.80480 0.43386 0.28813 0.00000
H85 H 0.34109 0.77421 0.43745 0.00000
H86 H 0.33940 0.74185 0.46953 0.00000
C87 C 0.37437 0.81655 0.37622 0.00000
H88 H 0.39966 0.82951 0.48028 0.00000
H89 H 0.39274 0.79953 0.51416 0.00000
Cd90 Cd 0.36840 0.83497 0.42528 0.00000
O91 O 0.39469 0.83610 0.38673 0.00000
O92 O 0.35128 0.80478 0.38802 0.00000
C93 C 0.35288 0.77974 0.45231 0.00000
C94 C 0.35094 0.76001 0.47258 0.00000
C95 C 0.36500 0.76784 0.49416 0.00000
C96 C 0.39494 0.87810 0.46099 0.00000
O97 O 0.40939 0.87439 0.44153 0.00000
O98 O 0.37135 0.86105 0.46097 0.00000
C99 C 0.38624 0.81175 0.47802 0.00000
C100 C 0.38278 0.79382 0.49791 0.00000
N101 N 0.37085 0.80484 0.45483 0.00000
H102 H 0.43305 0.65892 0.10412 0.00000
H103 H 0.40237 0.66061 0.13619 0.00000
C104 C 0.44212 0.62564 0.04288 0.00000
H105 H 0.42980 0.60035 0.14695 0.00000
H106 H 0.40674 0.60727 0.18082 0.00000
Cd107 Cd 0.46651 0.63161 0.09194 0.00000
O108 O 0.44136 0.60531 0.05340 0.00000
O109 O 0.45343 0.64872 0.05469 0.00000
C110 C 0.42679 0.64712 0.11898 0.00000
C111 C 0.40900 0.64906 0.13924 0.00000
C112 C 0.40278 0.63501 0.16083 0.00000
C113 C 0.48312 0.60507 0.12765 0.00000
O114 O 0.46497 0.59062 0.10820 0.00000
O115 O 0.48964 0.62866 0.12763 0.00000
C116 C 0.42546 0.61377 0.14469 0.00000
C117 C 0.41099 0.61723 0.16458 0.00000
N118 N 0.43393 0.62915 0.12149 0.00000
H119 H 0.65887 0.22577 0.93743 0.00000
H120 H 0.66057 0.25815 0.96950 0.00000
C121 C 0.62557 0.18344 0.87620 0.00000
H122 H 0.60029 0.17049 0.98027 0.00000
H123 H 0.60722 0.20048 0.01414 0.00000
Cd124 Cd 0.63154 0.16502 0.92526 0.00000
O125 O 0.60524 0.16389 0.88672 0.00000
O126 O 0.64866 0.19520 0.88800 0.00000
C127 C 0.64707 0.22025 0.95229 0.00000
C128 C 0.64902 0.23998 0.97256 0.00000
C129 C 0.63497 0.23216 0.99414 0.00000
C130 C 0.60499 0.12189 0.96097 0.00000
O131 O 0.59055 0.12560 0.94152 0.00000
O132 O 0.62858 0.13894 0.96095 0.00000
C133 C 0.61372 0.18825 0.97801 0.00000
C134 C 0.61718 0.20618 0.99790 0.00000
N135 N 0.62910 0.19515 0.95481 0.00000
H136 H 0.34116 0.56702 0.72924 0.00000
H137 H 0.33946 0.59769 0.69717 0.00000
C138 C 0.37446 0.55796 0.79047 0.00000
H139 H 0.39973 0.57027 0.68640 0.00000
H140 H 0.39280 0.59333 0.65252 0.00000
Cd141 Cd 0.36848 0.53357 0.74141 0.00000
O142 O 0.39478 0.55873 0.77995 0.00000
O143 O 0.35137 0.54664 0.77867 0.00000
C144 C 0.35295 0.57328 0.71438 0.00000
C145 C 0.35101 0.59107 0.69411 0.00000
C146 C 0.36506 0.59729 0.67253 0.00000
C147 C 0.39502 0.51697 0.70569 0.00000
O148 O 0.40947 0.53512 0.72514 0.00000
O149 O 0.37143 0.51044 0.70572 0.00000
C150 C 0.38630 0.57461 0.68866 0.00000
C151 C 0.38284 0.58908 0.66877 0.00000
N152 N 0.37093 0.56614 0.71186 0.00000
H153 H 0.77420 0.34107 0.89589 0.00000
H154 H 0.74184 0.33938 0.86381 0.00000
C155 C 0.81654 0.37436 0.95712 0.00000
H156 H 0.82950 0.39965 0.85306 0.00000
H157 H 0.79952 0.39272 0.81918 0.00000
Cd158 Cd 0.83496 0.36839 0.90806 0.00000
O159 O 0.83609 0.39469 0.94660 0.00000
O160 O 0.80478 0.35127 0.94532 0.00000
C161 C 0.77973 0.35287 0.88102 0.00000
C162 C 0.76000 0.35093 0.86076 0.00000
C163 C 0.76783 0.36498 0.83918 0.00000
C164 C 0.87809 0.39493 0.87235 0.00000
O165 O 0.87438 0.40937 0.89180 0.00000
O166 O 0.86104 0.37134 0.87237 0.00000
C167 C 0.81174 0.38622 0.85532 0.00000
C168 C 0.79381 0.38277 0.83542 0.00000
N169 N 0.80483 0.37084 0.87851 0.00000
H170 H 0.43295 0.77416 0.06258 0.00000
H171 H 0.40228 0.74180 0.03051 0.00000
C172 C 0.44201 0.81651 0.12381 0.00000
H173 H 0.42969 0.82947 0.01974 0.00000
H174 H 0.40664 0.79949 0.98586 0.00000
Cd175 Cd 0.46640 0.83491 0.07475 0.00000
O176 O 0.44123 0.83607 0.11328 0.00000
O177 O 0.45332 0.80473 0.11201 0.00000
C178 C 0.42669 0.77969 0.04772 0.00000
C179 C 0.40891 0.75997 0.02745 0.00000
C180 C 0.40268 0.76780 0.00587 0.00000
C181 C 0.48300 0.87805 0.03903 0.00000
O182 O 0.46485 0.87435 0.05848 0.00000
O183 O 0.48952 0.86098 0.03906 0.00000
C184 C 0.42536 0.81171 0.02200 0.00000
C185 C 0.41089 0.79378 0.00210 0.00000
N186 N 0.43383 0.80480 0.04520 0.00000
H187 H 0.65894 0.43306 0.22922 0.00000
H188 H 0.66063 0.40238 0.19715 0.00000
C189 C 0.62565 0.44213 0.29046 0.00000
H190 H 0.60037 0.42981 0.18639 0.00000
H191 H 0.60729 0.40675 0.15251 0.00000
Cd192 Cd 0.63163 0.46652 0.24140 0.00000
O193 O 0.60533 0.44136 0.27994 0.00000
O194 O 0.64874 0.45344 0.27865 0.00000
C195 C 0.64714 0.42679 0.21436 0.00000
C196 C 0.64909 0.40901 0.19410 0.00000
C197 C 0.63503 0.40278 0.17251 0.00000
C198 C 0.60509 0.48312 0.20569 0.00000
O199 O 0.59064 0.46498 0.22514 0.00000
O200 O 0.62868 0.48964 0.20571 0.00000
C201 C 0.61379 0.42547 0.18865 0.00000
C202 C 0.61725 0.41099 0.16876 0.00000
N203 N 0.62918 0.43394 0.21185 0.00000
In204 In 0.31788 0.63930 0.24743 0.00000
N205 N 0.28425 0.62917 0.27752 0.00000
N206 N 0.35420 0.64181 0.22687 0.00000
Cl207 Cl 0.28723 0.59681 0.22482 0.00000
Cl208 Cl 0.34958 0.67880 0.27378 0.00000
Cl209 Cl 0.32674 0.61419 0.27885 0.00000
H210 H 0.25790 0.62287 0.24637 0.00000
H211 H 0.22487 0.62314 0.27422 0.00000
H212 H 0.27131 0.63583 0.34172 0.00000
H213 H 0.30435 0.63555 0.31388 0.00000
H214 H 0.36891 0.68108 0.21677 0.00000
H215 H 0.40088 0.68380 0.18516 0.00000
H216 H 0.37749 0.60582 0.19939 0.00000
H217 H 0.34551 0.60309 0.23099 0.00000
C218 C 0.26063 0.62550 0.26571 0.00000
C219 C 0.24100 0.62566 0.28229 0.00000
C220 C 0.24497 0.62953 0.31058 0.00000
C221 C 0.26858 0.63320 0.32239 0.00000
C222 C 0.28822 0.63301 0.30584 0.00000
C223 C 0.37064 0.66581 0.21325 0.00000
C224 C 0.38965 0.66740 0.19447 0.00000
C225 C 0.39220 0.64508 0.18928 0.00000
C226 C 0.37575 0.62109 0.20290 0.00000
C227 C 0.35675 0.61946 0.22172 0.00000
In228 In 0.68065 0.31574 0.41402 0.00000
N229 N 0.65914 0.29032 0.45108 0.00000
N230 N 0.70485 0.35146 0.38649 0.00000
Cl231 Cl 0.72064 0.31638 0.43207 0.00000
Cl232 Cl 0.64171 0.31914 0.39971 0.00000
Cl233 Cl 0.68954 0.34969 0.44547 0.00000
H234 H 0.67216 0.26405 0.44259 0.00000
H235 H 0.64252 0.23020 0.47239 0.00000
H236 H 0.61088 0.27634 0.49495 0.00000
H237 H 0.64052 0.31018 0.46516 0.00000
H238 H 0.68015 0.33316 0.35369 0.00000
H239 H 0.70873 0.36294 0.32014 0.00000
H240 H 0.76350 0.40512 0.37937 0.00000
H241 H 0.73492 0.37534 0.41293 0.00000
C242 C 0.65974 0.26655 0.45321 0.00000
C243 C 0.64211 0.24644 0.47093 0.00000
C244 C 0.62390 0.25006 0.48646 0.00000
C245 C 0.62330 0.27383 0.48434 0.00000
C246 C 0.64094 0.29397 0.46664 0.00000
C247 C 0.69705 0.34775 0.35891 0.00000
C248 C 0.71406 0.36547 0.33898 0.00000
C249 C 0.73880 0.38682 0.34657 0.00000
C250 C 0.74660 0.39052 0.37415 0.00000
C251 C 0.72960 0.37284 0.39412 0.00000
In252 In 0.67869 0.36100 0.75271 0.00000
N253 N 0.65568 0.37104 0.72189 0.00000
N254 N 0.71180 0.35742 0.77349 0.00000
Cl255 Cl 0.69384 0.40551 0.77217 0.00000
Cl256 Cl 0.66751 0.31902 0.72932 0.00000
Cl257 Cl 0.71200 0.38234 0.71961 0.00000
H258 H 0.63794 0.38109 0.75245 0.00000
H259 H 0.60484 0.38125 0.72461 0.00000
H260 H 0.63405 0.36118 0.65829 0.00000
H261 H 0.66714 0.36102 0.68613 0.00000
H262 H 0.68582 0.31936 0.78641 0.00000
H263 H 0.71493 0.31665 0.81821 0.00000
H264 H 0.77235 0.39222 0.79841 0.00000
H265 H 0.74324 0.39494 0.76661 0.00000
C266 C 0.63716 0.37705 0.73335 0.00000
C267 C 0.61749 0.37714 0.71678 0.00000
C268 C 0.61631 0.37122 0.68884 0.00000
C269 C 0.63483 0.36522 0.67738 0.00000
C270 C 0.65453 0.36514 0.69393 0.00000
C271 C 0.70337 0.33415 0.78884 0.00000
C272 C 0.72069 0.33255 0.80773 0.00000
C273 C 0.74637 0.35416 0.81133 0.00000
C274 C 0.75480 0.37744 0.79598 0.00000
C275 C 0.73751 0.37905 0.77705 0.00000
In276 In 0.32111 0.68331 0.91380 0.00000
N277 N 0.29166 0.64688 0.88969 0.00000
N278 N 0.34098 0.71304 0.94837 0.00000
Cl279 Cl 0.34135 0.65661 0.92796 0.00000
Cl280 Cl 0.29711 0.70738 0.90375 0.00000
Cl281 Cl 0.28953 0.66123 0.94830 0.00000
H282 H 0.32171 0.64416 0.87046 0.00000
H283 H 0.29488 0.61419 0.83610 0.00000
H284 H 0.22976 0.61399 0.86804 0.00000
H285 H 0.25659 0.64396 0.90241 0.00000
H286 H 0.35240 0.74474 0.92231 0.00000
H287 H 0.38300 0.77735 0.95255 0.00000
H288 H 0.36597 0.72014 0.01033 0.00000
H289 H 0.33536 0.68752 0.98009 0.00000
C290 C 0.30306 0.63805 0.86998 0.00000
C291 C 0.28709 0.62023 0.84956 0.00000
C292 C 0.25981 0.61128 0.84881 0.00000
C293 C 0.24841 0.62010 0.86852 0.00000
C294 C 0.26435 0.63791 0.88898 0.00000
C295 C 0.35514 0.73974 0.94016 0.00000
C296 C 0.37333 0.75911 0.95816 0.00000
C297 C 0.37739 0.75183 0.98427 0.00000
C298 C 0.36323 0.72514 0.99248 0.00000
C299 C 0.34500 0.70574 0.97452 0.00000
In300 In 0.36022 0.67863 0.58106 0.00000
N301 N 0.37028 0.65416 0.60990 0.00000
N302 N 0.35958 0.71351 0.56070 0.00000
Cl303 Cl 0.39839 0.68461 0.55342 0.00000
Cl304 Cl 0.32575 0.67673 0.61203 0.00000
Cl305 Cl 0.39126 0.71299 0.60898 0.00000
H306 H 0.37007 0.63059 0.57837 0.00000
H307 H 0.36903 0.59695 0.60630 0.00000
H308 H 0.36923 0.63773 0.67458 0.00000
H309 H 0.37026 0.67137 0.64665 0.00000
H310 H 0.31905 0.69198 0.55557 0.00000
H311 H 0.31637 0.72150 0.52430 0.00000
H312 H 0.39690 0.77009 0.52864 0.00000
H313 H 0.39957 0.74057 0.55991 0.00000
C314 C 0.36990 0.63205 0.59788 0.00000
C315 C 0.36928 0.61206 0.61451 0.00000
C316 C 0.36902 0.61415 0.64306 0.00000
C317 C 0.36940 0.63627 0.65507 0.00000
C318 C 0.37004 0.65629 0.63847 0.00000
C319 C 0.33484 0.70782 0.55011 0.00000
C320 C 0.33327 0.72539 0.53153 0.00000
C321 C 0.35636 0.74856 0.52351 0.00000
C322 C 0.38110 0.75425 0.53409 0.00000
C323 C 0.38270 0.73672 0.55271 0.00000
In324 In 0.64089 0.31990 0.08422 0.00000
N325 N 0.63296 0.28358 0.05931 0.00000
N326 N 0.63531 0.35152 0.10567 0.00000
Cl327 Cl 0.62401 0.28957 0.12388 0.00000
Cl328 Cl 0.65248 0.34839 0.04320 0.00000
Cl329 Cl 0.59632 0.30440 0.07281 0.00000
H330 H 0.65442 0.27428 0.08610 0.00000
H331 H 0.65773 0.24352 0.05722 0.00000
H332 H 0.61549 0.25632 0.99821 0.00000
H333 H 0.61218 0.28708 0.02709 0.00000
H334 H 0.67237 0.38117 0.09386 0.00000
H335 H 0.67440 0.41379 0.12411 0.00000
H336 H 0.60070 0.36067 0.15344 0.00000
H337 H 0.59868 0.32805 0.12319 0.00000
C338 C 0.64652 0.27065 0.06828 0.00000
C339 C 0.64847 0.25236 0.05109 0.00000
C340 C 0.63694 0.24702 0.02500 0.00000
C341 C 0.62339 0.25995 0.01603 0.00000
C342 C 0.62139 0.27823 0.03321 0.00000
C343 C 0.65783 0.37700 0.10594 0.00000
C344 C 0.65901 0.39638 0.12393 0.00000
C345 C 0.63776 0.39031 0.14163 0.00000
C346 C 0.61524 0.36484 0.14136 0.00000
C347 C 0.61402 0.34544 0.12336 0.00000
In348 In 0.00010 0.54132 0.33032 0.00000
N349 N 0.95576 0.51632 0.32872 0.00000
N350 N 0.04278 0.57246 0.34276 0.00000
Cl351 Cl 0.99868 0.50919 0.36474 0.00000
Cl352 Cl 0.00178 0.57585 0.30015 0.00000
Cl353 Cl 0.99049 0.56155 0.36606 0.00000
H354 H 0.95711 0.48207 0.32193 0.00000
H355 H 0.91239 0.45586 0.30819 0.00000
H356 H 0.90128 0.51938 0.31914 0.00000
H357 H 0.94600 0.54559 0.33288 0.00000
H358 H 0.05504 0.58014 0.30263 0.00000
H359 H 0.10099 0.60392 0.31209 0.00000
H360 H 0.08516 0.59304 0.39410 0.00000
H361 H 0.03921 0.56925 0.38464 0.00000
C362 C 0.94579 0.48965 0.32137 0.00000
C363 C 0.91920 0.47408 0.31321 0.00000
C364 C 0.90263 0.48514 0.31235 0.00000
C365 C 0.91260 0.51180 0.31970 0.00000
C366 C 0.93918 0.52739 0.32790 0.00000
C367 C 0.06114 0.58275 0.32118 0.00000
C368 C 0.08846 0.59689 0.32683 0.00000
C369 C 0.09742 0.60071 0.35396 0.00000
C370 C 0.07906 0.59043 0.37554 0.00000
C371 C 0.05173 0.57630 0.36993 0.00000
In372 In 0.45969 0.00010 0.49723 0.00000
N373 N 0.43879 0.95570 0.49585 0.00000
N374 N 0.47059 0.04306 0.50858 0.00000
Cl375 Cl 0.48649 0.99786 0.53480 0.00000
Cl376 Cl 0.42897 0.00268 0.46357 0.00000
Cl377 Cl 0.42670 0.99123 0.53012 0.00000
H378 H 0.47427 0.95608 0.49279 0.00000
H379 H 0.45582 0.91125 0.47948 0.00000
H380 H 0.38140 0.90206 0.48304 0.00000
H381 H 0.39986 0.94689 0.49636 0.00000
H382 H 0.47843 0.05531 0.46845 0.00000
H383 H 0.50083 0.10128 0.47783 0.00000
H384 H 0.48942 0.08547 0.55982 0.00000
H385 H 0.46702 0.03950 0.55044 0.00000
C386 C 0.45544 0.94513 0.49082 0.00000
C387 C 0.44444 0.91847 0.48290 0.00000
C388 C 0.41689 0.90243 0.47999 0.00000
C389 C 0.40024 0.91301 0.48502 0.00000
C390 C 0.41120 0.93965 0.49296 0.00000
C391 C 0.48065 0.06142 0.48699 0.00000
C392 C 0.49396 0.08875 0.49259 0.00000
C393 C 0.49725 0.09772 0.51969 0.00000
C394 C 0.48720 0.07937 0.54129 0.00000
C395 C 0.47385 0.05202 0.53572 0.00000
In396 In 0.45400 0.45438 0.66464 0.00000
N397 N 0.43462 0.47516 0.68601 0.00000
N398 N 0.48464 0.44350 0.65045 0.00000
Cl399 Cl 0.44354 0.42708 0.70645 0.00000
Cl400 Cl 0.46888 0.48556 0.62564 0.00000
Cl401 Cl 0.49112 0.48703 0.68831 0.00000
H402 H 0.40076 0.43964 0.69415 0.00000
H403 H 0.37403 0.45810 0.70603 0.00000
H404 H 0.43667 0.53258 0.69197 0.00000
H405 H 0.46340 0.51413 0.68009 0.00000
H406 H 0.46976 0.43616 0.61122 0.00000
H407 H 0.49205 0.41380 0.59651 0.00000
H408 H 0.52598 0.42422 0.67215 0.00000
H409 H 0.50369 0.44659 0.68687 0.00000
C410 C 0.40805 0.45849 0.69371 0.00000
C411 C 0.39218 0.46949 0.70077 0.00000
C412 C 0.40280 0.49706 0.70011 0.00000
C413 C 0.42937 0.51373 0.69242 0.00000
C414 C 0.44528 0.50276 0.68537 0.00000
C415 C 0.48116 0.43375 0.62359 0.00000
C416 C 0.49443 0.42046 0.61486 0.00000
C417 C 0.51110 0.41688 0.63293 0.00000
C418 C 0.51458 0.42664 0.65979 0.00000
C419 C 0.50135 0.43996 0.66854 0.00000
In420 In 0.99990 0.45896 0.83047 0.00000
N421 N 0.95645 0.42877 0.84052 0.00000
N422 N 0.04461 0.48212 0.83104 0.00000
Cl423 Cl 0.99795 0.42515 0.79880 0.00000
Cl424 Cl 0.00176 0.49002 0.86631 0.00000
Cl425 Cl 0.00674 0.43576 0.86550 0.00000
H426 H 0.94594 0.42367 0.79983 0.00000
H427 H 0.89961 0.40140 0.80713 0.00000
H428 H 0.91190 0.40742 0.88986 0.00000
H429 H 0.95822 0.42969 0.88256 0.00000
H430 H 0.04551 0.51768 0.82575 0.00000
H431 H 0.09095 0.54273 0.81425 0.00000
H432 H 0.09772 0.47637 0.82264 0.00000
H433 H 0.05227 0.45132 0.83413 0.00000
C434 C 0.93904 0.42038 0.81809 0.00000
C435 C 0.91150 0.40714 0.82246 0.00000
C436 C 0.90138 0.40232 0.84917 0.00000
C437 C 0.91879 0.41071 0.87160 0.00000
C438 C 0.94634 0.42393 0.86726 0.00000
C439 C 0.05609 0.50929 0.82512 0.00000
C440 C 0.08311 0.52417 0.81829 0.00000
C441 C 0.09862 0.51192 0.81734 0.00000
C442 C 0.08714 0.48476 0.82326 0.00000
C443 C 0.06012 0.46986 0.83013 0.00000
In444 In 0.54354 0.54456 0.17031 0.00000
N445 N 0.55694 0.51451 0.17847 0.00000
N446 N 0.52854 0.56925 0.14875 0.00000
Cl447 Cl 0.49814 0.50791 0.17972 0.00000
Cl448 Cl 0.58832 0.57911 0.15565 0.00000
Cl449 Cl 0.53827 0.52684 0.12611 0.00000
H450 H 0.53759 0.50403 0.21555 0.00000
H451 H 0.55869 0.48113 0.23217 0.00000
H452 H 0.60138 0.49777 0.16118 0.00000
H453 H 0.58027 0.52068 0.14457 0.00000
H454 H 0.55482 0.60299 0.16970 0.00000
H455 H 0.53434 0.62802 0.15837 0.00000
H456 H 0.47794 0.56527 0.11439 0.00000
H457 H 0.49841 0.54024 0.12571 0.00000
C458 C 0.55052 0.50277 0.20451 0.00000
C459 C 0.56308 0.48915 0.21437 0.00000
C460 C 0.58203 0.48730 0.19827 0.00000
C461 C 0.58844 0.49904 0.17222 0.00000
C462 C 0.57588 0.51264 0.16232 0.00000
C463 C 0.53922 0.59533 0.15848 0.00000
C464 C 0.52704 0.61019 0.15173 0.00000
C465 C 0.50421 0.59901 0.13534 0.00000
C466 C 0.49353 0.57293 0.12561 0.00000
C467 C 0.50571 0.55805 0.13232 0.00000
In468 In 0.54532 0.99990 0.99759 0.00000
N469 N 0.52561 0.95934 0.01898 0.00000
N470 N 0.55614 0.04135 0.98481 0.00000
Cl471 Cl 0.57669 0.01556 0.03642 0.00000
Cl472 Cl 0.51046 0.98409 0.96213 0.00000
Cl473 Cl 0.51599 0.00517 0.02599 0.00000
H474 H 0.56110 0.95975 0.02219 0.00000
H475 H 0.54252 0.91442 0.03349 0.00000
H476 H 0.46806 0.90505 0.02918 0.00000
H477 H 0.48664 0.95038 0.01788 0.00000
H478 H 0.55914 0.03349 0.94431 0.00000
H479 H 0.58123 0.07814 0.92961 0.00000
H480 H 0.57941 0.10228 0.00779 0.00000
H481 H 0.55733 0.05763 0.02250 0.00000
C482 C 0.54223 0.94866 0.02361 0.00000
C483 C 0.53116 0.92171 0.03033 0.00000
C484 C 0.50356 0.90546 0.03239 0.00000
C485 C 0.48694 0.91614 0.02777 0.00000
C486 C 0.49798 0.94310 0.02107 0.00000
C487 C 0.56325 0.04743 0.95719 0.00000
C488 C 0.57638 0.07399 0.94847 0.00000
C489 C 0.58242 0.09442 0.96730 0.00000
C490 C 0.57531 0.08833 0.99491 0.00000
C491 C 0.56215 0.06179 0.00366 0.00000
In492 In 0.19206 0.59392 0.58265 0.00000
N493 N 0.18221 0.59869 0.53868 0.00000
N494 N 0.19143 0.59181 0.62918 0.00000
Cl495 Cl 0.15736 0.54681 0.57804 0.00000
Cl496 Cl 0.22265 0.64207 0.58827 0.00000
Cl497 Cl 0.15747 0.60271 0.59109 0.00000
H498 H 0.18682 0.56759 0.52559 0.00000
H499 H 0.18836 0.57693 0.47840 0.00000
H500 H 0.17946 0.64088 0.49568 0.00000
H501 H 0.17792 0.63154 0.54287 0.00000
H502 H 0.23223 0.61136 0.63121 0.00000
H503 H 0.23484 0.60097 0.67739 0.00000
H504 H 0.15375 0.55990 0.68204 0.00000
H505 H 0.15115 0.57029 0.63586 0.00000
C506 C 0.18533 0.58246 0.51953 0.00000
C507 C 0.18623 0.58803 0.49148 0.00000
C508 C 0.18407 0.60978 0.48258 0.00000
C509 C 0.18095 0.62601 0.50174 0.00000
C510 C 0.18001 0.62045 0.52980 0.00000
C511 C 0.21631 0.60092 0.64151 0.00000
C512 C 0.21783 0.59474 0.66897 0.00000
C513 C 0.19456 0.57945 0.68407 0.00000
C514 C 0.16968 0.57034 0.67174 0.00000
C515 C 0.16812 0.57654 0.64429 0.00000
In516 In 0.59090 0.18732 0.75118 0.00000
N517 N 0.58537 0.19737 0.70754 0.00000
N518 N 0.60992 0.18375 0.79047 0.00000
Cl519 Cl 0.59857 0.23182 0.76345 0.00000
Cl520 Cl 0.58852 0.14536 0.73721 0.00000
Cl521 Cl 0.63535 0.20868 0.73683 0.00000
H522 H 0.55760 0.20739 0.71963 0.00000
H523 H 0.54143 0.20755 0.67536 0.00000
H524 H 0.59388 0.18752 0.64284 0.00000
H525 H 0.61004 0.18736 0.68711 0.00000
H526 H 0.57933 0.14569 0.79722 0.00000
H527 H 0.59017 0.14297 0.84320 0.00000
H528 H 0.65335 0.21856 0.83840 0.00000
H529 H 0.64250 0.22128 0.79241 0.00000
C530 C 0.56497 0.20336 0.70406 0.00000
C531 C 0.55537 0.20345 0.67773 0.00000
C532 C 0.56610 0.19754 0.65494 0.00000
C533 C 0.58651 0.19156 0.65841 0.00000
C534 C 0.59615 0.19148 0.68473 0.00000
C535 C 0.59434 0.16047 0.80556 0.00000
C536 C 0.60081 0.15888 0.83290 0.00000
C537 C 0.62276 0.18049 0.84515 0.00000
C538 C 0.63833 0.20377 0.83006 0.00000
C539 C 0.63190 0.20539 0.80270 0.00000
In540 In 0.59108 0.40274 0.41560 0.00000
N541 N 0.60566 0.42398 0.37475 0.00000
N542 N 0.58963 0.39117 0.46033 0.00000
Cl543 Cl 0.57843 0.43645 0.42631 0.00000
Cl544 Cl 0.60889 0.37282 0.40640 0.00000
Cl545 Cl 0.63439 0.43464 0.42842 0.00000
H546 H 0.56987 0.42194 0.36716 0.00000
H547 H 0.57767 0.43302 0.32030 0.00000
H548 H 0.65068 0.43916 0.32663 0.00000
H549 H 0.64288 0.42808 0.37349 0.00000
H550 H 0.56857 0.35132 0.45108 0.00000
H551 H 0.55559 0.33643 0.49640 0.00000
H552 H 0.59522 0.41327 0.52344 0.00000
H553 H 0.60820 0.42817 0.47811 0.00000
C554 C 0.58627 0.42543 0.35895 0.00000
C555 C 0.59093 0.43202 0.33109 0.00000
C556 C 0.61489 0.43712 0.31904 0.00000
C557 C 0.63429 0.43567 0.33484 0.00000
C558 C 0.62967 0.42911 0.36271 0.00000
C559 C 0.57398 0.36390 0.46575 0.00000
C560 C 0.56628 0.35506 0.49271 0.00000
C561 C 0.57416 0.37343 0.51419 0.00000
C562 C 0.58981 0.40070 0.50877 0.00000
C563 C 0.59755 0.40957 0.48182 0.00000
In564 In 0.80708 0.40276 0.08372 0.00000
N565 N 0.81094 0.40079 0.03754 0.00000
N566 N 0.81701 0.41400 0.12854 0.00000
Cl567 Cl 0.79965 0.44035 0.07471 0.00000
Cl568 Cl 0.81992 0.36881 0.09220 0.00000
Cl569 Cl 0.85258 0.43330 0.07926 0.00000
H570 H 0.77528 0.39933 0.03092 0.00000
H571 H 0.77071 0.38588 0.98472 0.00000
H572 H 0.84112 0.38623 0.98925 0.00000
H573 H 0.84569 0.39968 0.03545 0.00000
H574 H 0.79293 0.37536 0.14102 0.00000
H575 H 0.79205 0.38516 0.18776 0.00000
H576 H 0.84001 0.46425 0.17163 0.00000
H577 H 0.84089 0.45446 0.12489 0.00000
C578 C 0.78864 0.39668 0.02248 0.00000
C579 C 0.78594 0.38868 0.99501 0.00000
C580 C 0.80546 0.38477 0.98263 0.00000
C581 C 0.82776 0.38888 0.99769 0.00000
C582 C 0.83049 0.39690 0.02516 0.00000
C583 C 0.80248 0.39339 0.14722 0.00000
C584 C 0.80198 0.39924 0.17500 0.00000
C585 C 0.81593 0.42561 0.18410 0.00000
C586 C 0.83046 0.44622 0.16543 0.00000
C587 C 0.83101 0.44040 0.13764 0.00000
In588 In 0.40168 0.80815 0.24926 0.00000
N589 N 0.41708 0.81815 0.20555 0.00000
N590 N 0.39971 0.80778 0.29579 0.00000
Cl591 Cl 0.39321 0.84564 0.24561 0.00000
Cl592 Cl 0.41542 0.77443 0.25401 0.00000
Cl593 Cl 0.44600 0.83994 0.25858 0.00000
H594 H 0.38291 0.81703 0.19238 0.00000
H595 H 0.39081 0.81588 0.14515 0.00000
H596 H 0.46058 0.81787 0.16258 0.00000
H597 H 0.45269 0.81902 0.20981 0.00000
H598 H 0.37568 0.76715 0.29673 0.00000
H599 H 0.36248 0.76450 0.34284 0.00000
H600 H 0.40801 0.84522 0.34965 0.00000
H601 H 0.42121 0.84787 0.30354 0.00000
C602 C 0.39867 0.81720 0.18635 0.00000
C603 C 0.40339 0.81652 0.15827 0.00000
C604 C 0.42642 0.81675 0.14941 0.00000
C605 C 0.44483 0.81770 0.16861 0.00000
C606 C 0.44015 0.81841 0.19670 0.00000
C607 C 0.38224 0.78299 0.30745 0.00000
C608 C 0.37441 0.78144 0.33487 0.00000
C609 C 0.38398 0.80460 0.35059 0.00000
C610 C 0.40144 0.82938 0.33893 0.00000
C611 C 0.40932 0.83097 0.31151 0.00000
In612 In 0.40175 0.59291 0.91784 0.00000
N613 N 0.39572 0.59097 0.87169 0.00000
N614 N 0.42129 0.60098 0.95979 0.00000
Cl615 Cl 0.40650 0.63750 0.91515 0.00000
Cl616 Cl 0.40230 0.55072 0.91888 0.00000
Cl617 Cl 0.44630 0.61309 0.90402 0.00000
H618 H 0.36625 0.60059 0.87508 0.00000
H619 H 0.34993 0.58844 0.83005 0.00000
H620 H 0.40575 0.56688 0.81478 0.00000
H621 H 0.42207 0.57903 0.85982 0.00000
H622 H 0.39226 0.56485 0.97455 0.00000
H623 H 0.40325 0.57459 0.02123 0.00000
H624 H 0.46332 0.64864 0.00010 0.00000
H625 H 0.45233 0.63891 0.95386 0.00000
C626 C 0.37427 0.59376 0.86286 0.00000
C627 C 0.36459 0.58653 0.83608 0.00000
C628 C 0.37628 0.57651 0.81818 0.00000
C629 C 0.39773 0.57372 0.82700 0.00000
C630 C 0.40746 0.58096 0.85378 0.00000
C631 C 0.40668 0.58185 0.97981 0.00000
C632 C 0.41323 0.58766 0.00756 0.00000
C633 C 0.43430 0.61252 0.01530 0.00000
C634 C 0.44890 0.63164 0.99529 0.00000
C635 C 0.44239 0.62586 0.96752 0.00000
loop_
_geom_bond_atom_site_label_1
_geom_bond_atom_site_label_2
_geom_bond_distance
_geom_bond_site_symmetry_2
_ccdc_geom_bond_type
H0 C8 0.930 . S
H1 C9 0.929 . S
C2 O6 1.257 . A
C2 O7 1.286 . A
H3 C14 0.930 . S
H4 C15 0.931 . S
Cd5 O6 2.384 . S
Cd5 O7 2.353 . S
Cd5 O12 2.448 . S
Cd5 O13 2.240 . S
Cd5 N16 2.307 . S
C8 C9 1.463 . A
C8 N16 1.297 . A
C9 C10 1.259 . A
C10 C15 1.338 . A
C11 O12 1.343 . A
C11 O13 1.216 . A
C14 C15 1.352 . A
C14 N16 1.361 . A
H17 C25 0.930 . S
H18 C26 0.929 . S
C19 O23 1.257 . A
C19 O24 1.286 . A
H20 C31 0.930 . S
H21 C32 0.931 . S
Cd22 O23 2.384 . S
Cd22 O24 2.353 . S
Cd22 O29 2.448 . S
Cd22 O30 2.240 . S
Cd22 N33 2.307 . S
C25 C26 1.463 . A
C25 N33 1.297 . A
C26 C27 1.259 . A
C27 C32 1.338 . A
C28 O29 1.343 . A
C28 O30 1.216 . A
C31 C32 1.352 . A
C31 N33 1.361 . A
H34 C42 0.930 . S
H35 C43 0.929 . S
C36 O40 1.257 . A
C36 O41 1.286 . A
H37 C48 0.930 . S
H38 C49 0.931 . S
Cd39 O40 2.384 . S
Cd39 O41 2.353 . S
Cd39 O46 2.448 . S
Cd39 O47 2.240 . S
Cd39 N50 2.307 . S
C42 C43 1.463 . A
C42 N50 1.297 . A
C43 C44 1.259 . A
C44 C49 1.338 . A
C45 O46 1.343 . A
C45 O47 1.216 . A
C48 C49 1.352 . A
C48 N50 1.361 . A
H51 C59 0.930 . S
H52 C60 0.929 . S
C53 O57 1.257 . A
C53 O58 1.286 . A
H54 C65 0.930 . S
H55 C66 0.931 . S
Cd56 O57 2.384 . S
Cd56 O58 2.353 . S
Cd56 O63 2.448 . S
Cd56 O64 2.240 . S
Cd56 N67 2.307 . S
C59 C60 1.463 . A
C59 N67 1.297 . A
C60 C61 1.259 . A
C61 C66 1.338 . A
C62 O63 1.343 . A
C62 O64 1.216 . A
C65 C66 1.352 . A
C65 N67 1.361 . A
H68 C76 0.930 . S
H69 C77 0.929 . S
C70 O74 1.257 . A
C70 O75 1.286 . A
H71 C82 0.930 . S
H72 C83 0.931 . S
Cd73 O74 2.384 . S
Cd73 O75 2.353 . S
Cd73 O80 2.448 . S
Cd73 O81 2.240 . S
Cd73 N84 2.307 . S
C76 C77 1.463 . A
C76 N84 1.297 . A
C77 C78 1.259 . A
C78 C83 1.338 . A
C79 O80 1.343 . A
C79 O81 1.216 . A
C82 C83 1.352 . A
C82 N84 1.361 . A
H85 C93 0.930 . S
H86 C94 0.929 . S
C87 O91 1.257 . A
C87 O92 1.286 . A
H88 C99 0.930 . S
H89 C100 0.931 . S
Cd90 O91 2.384 . S
Cd90 O92 2.353 . S
Cd90 O97 2.448 . S
Cd90 O98 2.240 . S
Cd90 N101 2.307 . S
C93 C94 1.463 . A
C93 N101 1.297 . A
C94 C95 1.259 . A
C95 C100 1.338 . A
C96 O97 1.343 . A
C96 O98 1.216 . A
C99 C100 1.352 . A
C99 N101 1.361 . A
H102 C110 0.930 . S
H103 C111 0.929 . S
C104 O108 1.257 . A
C104 O109 1.286 . A
H105 C116 0.930 . S
H106 C117 0.931 . S
Cd107 O108 2.384 . S
Cd107 O109 2.353 . S
Cd107 O114 2.448 . S
Cd107 O115 2.240 . S
Cd107 N118 2.307 . S
C110 C111 1.463 . A
C110 N118 1.297 . A
C111 C112 1.259 . A
C112 C117 1.338 . A
C113 O114 1.343 . A
C113 O115 1.216 . A
C116 C117 1.352 . A
C116 N118 1.361 . A
H119 C127 0.930 . S
H120 C128 0.929 . S
C121 O125 1.257 . A
C121 O126 1.286 . A
H122 C133 0.930 . S
H123 C134 0.931 1_554 S
Cd124 O125 2.384 . S
Cd124 O126 2.353 . S
Cd124 O131 2.448 . S
Cd124 O132 2.240 . S
Cd124 N135 2.307 . S
C127 C128 1.463 . A
C127 N135 1.297 . A
C128 C129 1.259 . A
C129 C134 1.338 . A
C130 O131 1.343 . A
C130 O132 1.216 . A
C133 C134 1.352 . A
C133 N135 1.361 . A
H136 C144 0.930 . S
H137 C145 0.929 . S
C138 O142 1.257 . A
C138 O143 1.286 . A
H139 C150 0.930 . S
H140 C151 0.931 . S
Cd141 O142 2.384 . S
Cd141 O143 2.353 . S
Cd141 O148 2.448 . S
Cd141 O149 2.240 . S
Cd141 N152 2.307 . S
C144 C145 1.463 . A
C144 N152 1.297 . A
C145 C146 1.259 . A
C146 C151 1.338 . A
C147 O148 1.343 . A
C147 O149 1.216 . A
C150 C151 1.352 . A
C150 N152 1.361 . A
H153 C161 0.930 . S
H154 C162 0.929 . S
C155 O159 1.257 . A
C155 O160 1.286 . A
H156 C167 0.930 . S
H157 C168 0.931 . S
Cd158 O159 2.384 . S
Cd158 O160 2.353 . S
Cd158 O165 2.448 . S
Cd158 O166 2.240 . S
Cd158 N169 2.307 . S
C161 C162 1.463 . A
C161 N169 1.297 . A
C162 C163 1.259 . A
C163 C168 1.338 . A
C164 O165 1.343 . A
C164 O166 1.216 . A
C167 C168 1.352 . A
C167 N169 1.361 . A
H170 C178 0.930 . S
H171 C179 0.929 . S
C172 O176 1.257 . A
C172 O177 1.286 . A
H173 C184 0.930 . S
H174 C185 0.931 1_556 S
Cd175 O176 2.384 . S
Cd175 O177 2.353 . S
Cd175 O182 2.448 . S
Cd175 O183 2.240 . S
Cd175 N186 2.307 . S
C178 C179 1.463 . A
C178 N186 1.297 . A
C179 C180 1.259 . A
C180 C185 1.338 . A
C181 O182 1.343 . A
C181 O183 1.216 . A
C184 C185 1.352 . A
C184 N186 1.361 . A
H187 C195 0.930 . S
H188 C196 0.929 . S
C189 O193 1.257 . A
C189 O194 1.286 . A
H190 C201 0.930 . S
H191 C202 0.931 . S
Cd192 O193 2.384 . S
Cd192 O194 2.353 . S
Cd192 O199 2.448 . S
Cd192 O200 2.240 . S
Cd192 N203 2.307 . S
C195 C196 1.463 . A
C195 N203 1.297 . A
C196 C197 1.259 . A
C197 C202 1.338 . A
C198 O199 1.343 . A
C198 O200 1.216 . A
C201 C202 1.352 . A
C201 N203 1.361 . A
In204 N205 2.255 . S
In204 N206 2.255 . S
In204 Cl207 2.447 . S
In204 Cl208 2.447 . S
In204 Cl209 2.325 . S
N205 C218 1.391 . A
N205 C222 1.390 . A
N206 C223 1.391 . A
N206 C227 1.390 . A
H210 C218 0.949 . S
H211 C219 0.950 . S
H212 C221 0.949 . S
H213 C222 0.949 . S
H214 C223 0.949 . S
H215 C224 0.950 . S
H216 C226 0.949 . S
H217 C227 0.949 . S
C218 C219 1.391 . A
C219 C220 1.388 . A
C220 C221 1.391 . A
C221 C222 1.391 . A
C223 C224 1.391 . A
C224 C225 1.388 . A
C225 C226 1.391 . A
C226 C227 1.391 . A
In228 N229 2.255 . S
In228 N230 2.255 . S
In228 Cl231 2.447 . S
In228 Cl232 2.447 . S
In228 Cl233 2.325 . S
N229 C242 1.391 . A
N229 C246 1.390 . A
N230 C247 1.391 . A
N230 C251 1.390 . A
H234 C242 0.949 . S
H235 C243 0.950 . S
H236 C245 0.949 . S
H237 C246 0.949 . S
H238 C247 0.949 . S
H239 C248 0.950 . S
H240 C250 0.949 . S
H241 C251 0.949 . S
C242 C243 1.391 . A
C243 C244 1.388 . A
C244 C245 1.391 . A
C245 C246 1.391 . A
C247 C248 1.391 . A
C248 C249 1.388 . A
C249 C250 1.391 . A
C250 C251 1.391 . A
In252 N253 2.255 . S
In252 N254 2.255 . S
In252 Cl255 2.447 . S
In252 Cl256 2.447 . S
In252 Cl257 2.325 . S
N253 C266 1.391 . A
N253 C270 1.390 . A
N254 C271 1.391 . A
N254 C275 1.390 . A
H258 C266 0.949 . S
H259 C267 0.950 . S
H260 C269 0.949 . S
H261 C270 0.949 . S
H262 C271 0.949 . S
H263 C272 0.950 . S
H264 C274 0.949 . S
H265 C275 0.949 . S
C266 C267 1.391 . A
C267 C268 1.388 . A
C268 C269 1.391 . A
C269 C270 1.391 . A
C271 C272 1.391 . A
C272 C273 1.388 . A
C273 C274 1.391 . A
C274 C275 1.391 . A
In276 N277 2.255 . S
In276 N278 2.255 . S
In276 Cl279 2.447 . S
In276 Cl280 2.447 . S
In276 Cl281 2.325 . S
N277 C290 1.391 . A
N277 C294 1.390 . A
N278 C295 1.391 . A
N278 C299 1.390 . A
H282 C290 0.949 . S
H283 C291 0.950 . S
H284 C293 0.949 . S
H285 C294 0.949 . S
H286 C295 0.949 . S
H287 C296 0.950 . S
H288 C298 0.949 1_554 S
H289 C299 0.949 . S
C290 C291 1.391 . A
C291 C292 1.388 . A
C292 C293 1.391 . A
C293 C294 1.391 . A
C295 C296 1.391 . A
C296 C297 1.388 . A
C297 C298 1.391 . A
C298 C299 1.391 . A
In300 N301 2.255 . S
In300 N302 2.255 . S
In300 Cl303 2.447 . S
In300 Cl304 2.447 . S
In300 Cl305 2.325 . S
N301 C314 1.391 . A
N301 C318 1.390 . A
N302 C319 1.391 . A
N302 C323 1.390 . A
H306 C314 0.949 . S
H307 C315 0.950 . S
H308 C317 0.949 . S
H309 C318 0.949 . S
H310 C319 0.949 . S
H311 C320 0.950 . S
H312 C322 0.949 . S
H313 C323 0.949 . S
C314 C315 1.391 . A
C315 C316 1.388 . A
C316 C317 1.391 . A
C317 C318 1.391 . A
C319 C320 1.391 . A
C320 C321 1.388 . A
C321 C322 1.391 . A
C322 C323 1.391 . A
In324 N325 2.255 . S
In324 N326 2.255 . S
In324 Cl327 2.447 . S
In324 Cl328 2.447 . S
In324 Cl329 2.325 . S
N325 C338 1.391 . A
N325 C342 1.390 . A
N326 C343 1.391 . A
N326 C347 1.390 . A
H330 C338 0.949 . S
H331 C339 0.950 . S
H332 C341 0.949 1_556 S
H333 C342 0.949 . S
H334 C343 0.949 . S
H335 C344 0.950 . S
H336 C346 0.949 . S
H337 C347 0.949 . S
C338 C339 1.391 . A
C339 C340 1.388 . A
C340 C341 1.391 . A
C341 C342 1.391 . A
C343 C344 1.391 . A
C344 C345 1.388 . A
C345 C346 1.391 . A
C346 C347 1.391 . A
In348 N349 2.220 1_455 S
In348 N350 2.285 . S
In348 Cl351 2.461 1_455 S
In348 Cl352 2.431 . S
In348 Cl353 2.303 1_455 S
N349 C362 1.391 . A
N349 C366 1.390 . A
N350 C367 1.391 . A
N350 C371 1.390 . A
H354 C362 0.949 . S
H355 C363 0.950 . S
H356 C365 0.949 . S
H357 C366 0.949 . S
H358 C367 0.949 . S
H359 C368 0.950 . S
H360 C370 0.949 . S
H361 C371 0.949 . S
C362 C363 1.391 . A
C363 C364 1.388 . A
C364 C365 1.391 . A
C365 C366 1.391 . A
C367 C368 1.391 . A
C368 C369 1.388 . A
C369 C370 1.391 . A
C370 C371 1.391 . A
In372 N373 2.218 1_545 S
In372 N374 2.295 . S
In372 Cl375 2.431 1_545 S
In372 Cl376 2.465 . S
In372 Cl377 2.332 1_545 S
N373 C386 1.391 . A
N373 C390 1.390 . A
N374 C391 1.391 . A
N374 C395 1.390 . A
H378 C386 0.949 . S
H379 C387 0.950 . S
H380 C389 0.949 . S
H381 C390 0.949 . S
H382 C391 0.949 . S
H383 C392 0.950 . S
H384 C394 0.949 . S
H385 C395 0.949 . S
C386 C387 1.391 . A
C387 C388 1.388 . A
C388 C389 1.391 . A
C389 C390 1.391 . A
C391 C392 1.391 . A
C392 C393 1.388 . A
C393 C394 1.391 . A
C394 C395 1.391 . A
In396 N397 2.255 . S
In396 N398 2.255 . S
In396 Cl399 2.447 . S
In396 Cl400 2.447 . S
In396 Cl401 2.325 . S
N397 C410 1.391 . A
N397 C414 1.390 . A
N398 C415 1.391 . A
N398 C419 1.390 . A
H402 C410 0.949 . S
H403 C411 0.950 . S
H404 C413 0.949 . S
H405 C414 0.949 . S
H406 C415 0.949 . S
H407 C416 0.950 . S
H408 C418 0.949 . S
H409 C419 0.949 . S
C410 C411 1.391 . A
C411 C412 1.388 . A
C412 C413 1.391 . A
C413 C414 1.391 . A
C415 C416 1.391 . A
C416 C417 1.388 . A
C417 C418 1.391 . A
C418 C419 1.391 . A
In420 N421 2.275 . S
In420 N422 2.232 1_655 S
In420 Cl423 2.437 . S
In420 Cl424 2.456 1_655 S
In420 Cl425 2.312 1_655 S
N421 C434 1.391 . A
N421 C438 1.390 . A
N422 C439 1.391 . A
N422 C443 1.390 . A
H426 C434 0.949 . S
H427 C435 0.950 . S
H428 C437 0.949 . S
H429 C438 0.949 . S
H430 C439 0.949 . S
H431 C440 0.950 . S
H432 C442 0.949 . S
H433 C443 0.949 . S
C434 C435 1.391 . A
C435 C436 1.388 . A
C436 C437 1.391 . A
C437 C438 1.391 . A
C439 C440 1.391 . A
C440 C441 1.388 . A
C441 C442 1.391 . A
C442 C443 1.391 . A
In444 N445 2.255 . S
In444 N446 2.255 . S
In444 Cl447 2.447 . S
In444 Cl448 2.447 . S
In444 Cl449 2.325 . S
N445 C458 1.391 . A
N445 C462 1.390 . A
N446 C463 1.391 . A
N446 C467 1.390 . A
H450 C458 0.949 . S
H451 C459 0.950 . S
H452 C461 0.949 . S
H453 C462 0.949 . S
H454 C463 0.949 . S
H455 C464 0.950 . S
H456 C466 0.949 . S
H457 C467 0.949 . S
C458 C459 1.391 . A
C459 C460 1.388 . A
C460 C461 1.391 . A
C461 C462 1.391 . A
C463 C464 1.391 . A
C464 C465 1.388 . A
C465 C466 1.391 . A
C466 C467 1.391 . A
In468 N469 2.274 1_556 S
In468 N470 2.233 1_565 S
In468 Cl471 2.447 1_566 S
In468 Cl472 2.446 . S
In468 Cl473 2.313 1_566 S
N469 C482 1.391 . A
N469 C486 1.390 . A
N470 C487 1.391 . A
N470 C491 1.390 1_556 A
H474 C482 0.949 . S
H475 C483 0.950 . S
H476 C485 0.949 . S
H477 C486 0.949 . S
H478 C487 0.949 . S
H479 C488 0.950 . S
H480 C490 0.949 1_554 S
H481 C491 0.949 . S
C482 C483 1.391 . A
C483 C484 1.388 . A
C484 C485 1.391 . A
C485 C486 1.391 . A
C487 C488 1.391 . A
C488 C489 1.388 . A
C489 C490 1.391 . A
C490 C491 1.391 1_556 A
In492 N493 2.255 . S
In492 N494 2.255 . S
In492 Cl495 2.447 . S
In492 Cl496 2.447 . S
In492 Cl497 2.325 . S
N493 C506 1.391 . A
N493 C510 1.390 . A
N494 C511 1.391 . A
N494 C515 1.390 . A
H498 C506 0.949 . S
H499 C507 0.950 . S
H500 C509 0.949 . S
H501 C510 0.949 . S
H502 C511 0.949 . S
H503 C512 0.950 . S
H504 C514 0.949 . S
H505 C515 0.949 . S
C506 C507 1.391 . A
C507 C508 1.388 . A
C508 C509 1.391 . A
C509 C510 1.391 . A
C511 C512 1.391 . A
C512 C513 1.388 . A
C513 C514 1.391 . A
C514 C515 1.391 . A
In516 N517 2.255 . S
In516 N518 2.255 . S
In516 Cl519 2.447 . S
In516 Cl520 2.447 . S
In516 Cl521 2.325 . S
N517 C530 1.391 . A
N517 C534 1.390 . A
N518 C535 1.391 . A
N518 C539 1.390 . A
H522 C530 0.949 . S
H523 C531 0.950 . S
H524 C533 0.949 . S
H525 C534 0.949 . S
H526 C535 0.949 . S
H527 C536 0.950 . S
H528 C538 0.949 . S
H529 C539 0.949 . S
C530 C531 1.391 . A
C531 C532 1.388 . A
C532 C533 1.391 . A
C533 C534 1.391 . A
C535 C536 1.391 . A
C536 C537 1.388 . A
C537 C538 1.391 . A
C538 C539 1.391 . A
In540 N541 2.255 . S
In540 N542 2.255 . S
In540 Cl543 2.447 . S
In540 Cl544 2.447 . S
In540 Cl545 2.325 . S
N541 C554 1.391 . A
N541 C558 1.390 . A
N542 C559 1.391 . A
N542 C563 1.390 . A
H546 C554 0.949 . S
H547 C555 0.950 . S
H548 C557 0.949 . S
H549 C558 0.949 . S
H550 C559 0.949 . S
H551 C560 0.950 . S
H552 C562 0.949 . S
H553 C563 0.949 . S
C554 C555 1.391 . A
C555 C556 1.388 . A
C556 C557 1.391 . A
C557 C558 1.391 . A
C559 C560 1.391 . A
C560 C561 1.388 . A
C561 C562 1.391 . A
C562 C563 1.391 . A
In564 N565 2.255 . S
In564 N566 2.255 . S
In564 Cl567 2.447 . S
In564 Cl568 2.447 . S
In564 Cl569 2.325 . S
N565 C578 1.391 . A
N565 C582 1.390 . A
N566 C583 1.391 . A
N566 C587 1.390 . A
H570 C578 0.949 . S
H571 C579 0.950 . S
H572 C581 0.949 . S
H573 C582 0.949 . S
H574 C583 0.949 . S
H575 C584 0.950 . S
H576 C586 0.949 . S
H577 C587 0.949 . S
C578 C579 1.391 1_554 A
C579 C580 1.388 . A
C580 C581 1.391 . A
C581 C582 1.391 1_556 A
C583 C584 1.391 . A
C584 C585 1.388 . A
C585 C586 1.391 . A
C586 C587 1.391 . A
In588 N589 2.255 . S
In588 N590 2.255 . S
In588 Cl591 2.447 . S
In588 Cl592 2.447 . S
In588 Cl593 2.325 . S
N589 C602 1.391 . A
N589 C606 1.390 . A
N590 C607 1.391 . A
N590 C611 1.390 . A
H594 C602 0.949 . S
H595 C603 0.950 . S
H596 C605 0.949 . S
H597 C606 0.949 . S
H598 C607 0.949 . S
H599 C608 0.950 . S
H600 C610 0.949 . S
H601 C611 0.949 . S
C602 C603 1.391 . A
C603 C604 1.388 . A
C604 C605 1.391 . A
C605 C606 1.391 . A
C607 C608 1.391 . A
C608 C609 1.388 . A
C609 C610 1.391 . A
C610 C611 1.391 . A
In612 N613 2.255 . S
In612 N614 2.255 . S
In612 Cl615 2.447 . S
In612 Cl616 2.447 . S
In612 Cl617 2.325 . S
N613 C626 1.391 . A
N613 C630 1.390 . A
N614 C631 1.391 . A
N614 C635 1.390 . A
H618 C626 0.949 . S
H619 C627 0.950 . S
H620 C629 0.949 . S
H621 C630 0.949 . S
H622 C631 0.949 . S
H623 C632 0.950 . S
H624 C634 0.943 1_554 S
H625 C635 0.949 . S
C626 C627 1.391 . A
C627 C628 1.388 . A
C628 C629 1.391 . A
C629 C630 1.391 . A
C631 C632 1.391 1_556 A
C632 C633 1.388 . A
C633 C634 1.391 1_554 A
C634 C635 1.391 . A
C220 C10 1.671 . S
C225 C112 1.720 . S
C244 C27 1.649 . S
C249 C78 1.719 . S
C268 C44 1.668 . S
C273 C163 1.722 . S
C292 C61 1.723 . S
C297 C180 1.650 1_556 S
C316 C146 1.676 . S
C321 C95 1.717 . S
C340 C129 1.697 1_554 S
C345 C197 1.700 . S
C364 C79 1.616 . S
C369 C11 1.579 . S
C388 C96 1.624 . S
C393 C28 1.590 . S
C412 C147 1.450 . S
C417 C45 1.481 . S
C436 C164 1.634 . S
C441 C62 1.657 . S
C460 C198 1.507 . S
C465 C113 1.470 . S
C484 C181 1.460 . S
C489 C130 1.494 . S
C508 C2 1.542 . S
C513 C53 1.636 . S
C532 C19 1.664 . S
C537 C121 1.513 . S
C556 C189 1.485 . S
C561 C36 1.690 . S
C580 C155 1.636 . S
C585 C70 1.543 . S
C604 C172 1.535 . S
C609 C87 1.644 . S
C628 C138 1.685 . S
C633 C104 1.489 . S
