# Generated by pormake.
# Topology wjp, (5)-cn, num edge types: 1
# Building blocks:
#     Node 0, Type 0, BuildingBlock: N482, # of connection points: 5
#     Node 1, Type 0, BuildingBlock: N482, # of connection points: 5
#     Node 2, Type 0, BuildingBlock: N482, # of connection points: 5
#     Node 3, Type 0, BuildingBlock: N482, # of connection points: 5
#     Node 4, Type 0, BuildingBlock: N482, # of connection points: 5
#     Node 5, Type 0, BuildingBlock: N482, # of connection points: 5
#     Node 6, Type 0, BuildingBlock: N482, # of connection points: 5
#     Node 7, Type 0, BuildingBlock: N482, # of connection points: 5
#     Node 8, Type 0, BuildingBlock: N482, # of connection points: 5
#     Node 9, Type 0, BuildingBlock: N482, # of connection points: 5
#     Node 10, Type 0, BuildingBlock: N482, # of connection points: 5
#     Node 11, Type 0, BuildingBlock: N482, # of connection points: 5
#     Edge 12, Type (0, 0), BuildingBlock: E202, # of connection points: 2
#     Edge 13, Type (0, 0), BuildingBlock: E202, # of connection points: 2
#     Edge 14, Type (0, 0), BuildingBlock: E202, # of connection points: 2
#     Edge 15, Type (0, 0), BuildingBlock: E202, # of connection points: 2
#     Edge 16, Type (0, 0), BuildingBlock: E202, # of connection points: 2
#     Edge 17, Type (0, 0), BuildingBlock: E202, # of connection points: 2
#     Edge 18, Type (0, 0), BuildingBlock: E202, # of connection points: 2
#     Edge 19, Type (0, 0), BuildingBlock: E202, # of connection points: 2
#     Edge 20, Type (0, 0), BuildingBlock: E202, # of connection points: 2
#     Edge 21, Type (0, 0), BuildingBlock: E202, # of connection points: 2
#     Edge 22, Type (0, 0), BuildingBlock: E202, # of connection points: 2
#     Edge 23, Type (0, 0), BuildingBlock: E202, # of connection points: 2
#     Edge 24, Type (0, 0), BuildingBlock: E202, # of connection points: 2
#     Edge 25, Type (0, 0), BuildingBlock: E202, # of connection points: 2
#     Edge 26, Type (0, 0), BuildingBlock: E202, # of connection points: 2
#     Edge 27, Type (0, 0), BuildingBlock: E202, # of connection points: 2
#     Edge 28, Type (0, 0), BuildingBlock: E202, # of connection points: 2
#     Edge 29, Type (0, 0), BuildingBlock: E202, # of connection points: 2
#     Edge 30, Type (0, 0), BuildingBlock: E202, # of connection points: 2
#     Edge 31, Type (0, 0), BuildingBlock: E202, # of connection points: 2
#     Edge 32, Type (0, 0), BuildingBlock: E202, # of connection points: 2
#     Edge 33, Type (0, 0), BuildingBlock: E202, # of connection points: 2
#     Edge 34, Type (0, 0), BuildingBlock: E202, # of connection points: 2
#     Edge 35, Type (0, 0), BuildingBlock: E202, # of connection points: 2
#     Edge 36, Type (0, 0), BuildingBlock: E202, # of connection points: 2
#     Edge 37, Type (0, 0), BuildingBlock: E202, # of connection points: 2
#     Edge 38, Type (0, 0), BuildingBlock: E202, # of connection points: 2
#     Edge 39, Type (0, 0), BuildingBlock: E202, # of connection points: 2
#     Edge 40, Type (0, 0), BuildingBlock: E202, # of connection points: 2
#     Edge 41, Type (0, 0), BuildingBlock: E202, # of connection points: 2
# Relax obj value: 0.676
# Max RMSD: 0.302
# Mean RMSD: 0.302
data_wjp+N482+E202
_symmetry_space_group_name_H-M    P1
_symmetry_Int_Tables_number       1
_symmetry_cell_setting            triclinic
loop_
_symmetry_equiv_pos_as_xyz
'x, y, z'
_cell_length_a     26.385
_cell_length_b     26.385
_cell_length_c     37.035
_cell_angle_alpha  90.000
_cell_angle_beta   90.000
_cell_angle_gamma  120.001
loop_
_atom_site_label
_atom_site_type_symbol
_atom_site_fract_x
_atom_site_fract_y
_atom_site_fract_z
_atom_type_partial_charge
Ni0 Ni 0.88546 0.15166 0.03798 0.00000
Ni1 Ni 0.91775 0.28706 0.04385 0.00000
C2 C 0.87509 0.24924 0.98152 0.00000
C3 C 0.89871 0.35778 0.07034 0.00000
O4 O 0.90122 0.30217 0.98328 0.00000
O5 O 0.95025 0.36806 0.07054 0.00000
O6 O 0.85865 0.30824 0.05885 0.00000
O7 O 0.99158 0.29067 0.03553 0.00000
O8 O 0.86999 0.21836 0.00690 0.00000
C9 C 0.00282 0.25055 0.02924 0.00000
C10 C 0.89206 0.17837 0.10447 0.00000
C11 C 0.81670 0.05389 0.02162 0.00000
O12 O 0.89434 0.13419 0.09943 0.00000
O13 O 0.86744 0.07513 0.00962 0.00000
O14 O 0.80320 0.08692 0.03930 0.00000
O15 O 0.96822 0.19631 0.02824 0.00000
O16 O 0.88693 0.20610 0.08027 0.00000
Ni17 Ni 0.73387 0.88554 0.20465 0.00000
Ni18 Ni 0.63074 0.91780 0.21053 0.00000
C19 C 0.62591 0.87515 0.14819 0.00000
C20 C 0.54098 0.89874 0.23702 0.00000
O21 O 0.59910 0.90128 0.14995 0.00000
O22 O 0.58224 0.95028 0.23722 0.00000
O23 O 0.55046 0.85868 0.22552 0.00000
O24 O 0.70095 0.99164 0.20220 0.00000
O25 O 0.65170 0.87006 0.17357 0.00000
C26 C 0.75232 0.00289 0.19592 0.00000
C27 C 0.71375 0.89211 0.27114 0.00000
C28 C 0.76289 0.81679 0.18828 0.00000
O29 O 0.76021 0.89441 0.26610 0.00000
O30 O 0.79239 0.86754 0.17629 0.00000
O31 O 0.71636 0.80328 0.20596 0.00000
O32 O 0.77197 0.96829 0.19491 0.00000
O33 O 0.68089 0.88699 0.24694 0.00000
Ni34 Ni 0.73383 0.84834 0.96202 0.00000
Ni35 Ni 0.63071 0.71293 0.95614 0.00000
C36 C 0.62589 0.75075 0.01848 0.00000
C37 C 0.54096 0.64221 0.92966 0.00000
O38 O 0.59909 0.69781 0.01672 0.00000
O39 O 0.58222 0.63194 0.92945 0.00000
O40 O 0.55043 0.69174 0.94116 0.00000
O41 O 0.70094 0.70932 0.96446 0.00000
O42 O 0.65167 0.78163 0.99310 0.00000
C43 C 0.75230 0.74945 0.97075 0.00000
C44 C 0.71370 0.82163 0.89552 0.00000
C45 C 0.76284 0.94610 0.97838 0.00000
O46 O 0.76016 0.86581 0.90056 0.00000
O47 O 0.79235 0.92487 0.99038 0.00000
O48 O 0.71630 0.91307 0.96071 0.00000
O49 O 0.77195 0.80369 0.97175 0.00000
O50 O 0.68085 0.79389 0.91973 0.00000
Ni51 Ni 0.88559 0.73392 0.12866 0.00000
Ni52 Ni 0.91786 0.63079 0.12279 0.00000
C53 C 0.87521 0.62596 0.18513 0.00000
C54 C 0.89881 0.54104 0.09630 0.00000
O55 O 0.90134 0.59916 0.18336 0.00000
O56 O 0.95035 0.58230 0.09610 0.00000
O57 O 0.85875 0.55051 0.10780 0.00000
O58 O 0.99170 0.70101 0.13111 0.00000
O59 O 0.87012 0.65175 0.15974 0.00000
C60 C 0.00294 0.75238 0.13740 0.00000
C61 C 0.89217 0.71380 0.06217 0.00000
C62 C 0.81684 0.76294 0.14503 0.00000
O63 O 0.89446 0.76026 0.06721 0.00000
O64 O 0.86759 0.79244 0.15703 0.00000
O65 O 0.80333 0.71641 0.12735 0.00000
O66 O 0.96835 0.77203 0.13840 0.00000
O67 O 0.88705 0.68094 0.08637 0.00000
Ni68 Ni 0.11440 0.26609 0.62868 0.00000
Ni69 Ni 0.08214 0.36922 0.62280 0.00000
C70 C 0.12478 0.37405 0.68514 0.00000
C71 C 0.10119 0.45898 0.59631 0.00000
O72 O 0.09865 0.40086 0.68338 0.00000
O73 O 0.04965 0.41773 0.59611 0.00000
O74 O 0.14125 0.44950 0.60781 0.00000
O75 O 0.00830 0.29901 0.63112 0.00000
O76 O 0.12987 0.34826 0.65976 0.00000
C77 C 0.99705 0.24764 0.63741 0.00000
C78 C 0.10782 0.28622 0.56218 0.00000
C79 C 0.18314 0.23707 0.64504 0.00000
O80 O 0.10553 0.23975 0.56722 0.00000
O81 O 0.13240 0.20757 0.65704 0.00000
O82 O 0.19665 0.28360 0.62737 0.00000
O83 O 0.03164 0.22799 0.63841 0.00000
O84 O 0.11295 0.31907 0.58639 0.00000
Ni85 Ni 0.84828 0.11450 0.79535 0.00000
Ni86 Ni 0.71288 0.08221 0.78948 0.00000
C87 C 0.75071 0.12487 0.85182 0.00000
C88 C 0.64217 0.10125 0.76300 0.00000
O89 O 0.69777 0.09873 0.85006 0.00000
O90 O 0.63189 0.04971 0.76279 0.00000
O91 O 0.69170 0.14131 0.77449 0.00000
O92 O 0.70927 0.00838 0.79781 0.00000
O93 O 0.78159 0.12996 0.82643 0.00000
C94 C 0.74939 0.99714 0.80410 0.00000
C95 C 0.82157 0.10791 0.72886 0.00000
C96 C 0.94605 0.18326 0.81172 0.00000
O97 O 0.86575 0.10562 0.73390 0.00000
O98 O 0.92481 0.13251 0.82372 0.00000
O99 O 0.91302 0.19676 0.79404 0.00000
O100 O 0.80364 0.03174 0.80510 0.00000
O101 O 0.79384 0.11303 0.75306 0.00000
Ni102 Ni 0.26612 0.15164 0.46202 0.00000
Ni103 Ni 0.36925 0.28705 0.45615 0.00000
C104 C 0.37406 0.24922 0.51849 0.00000
C105 C 0.45901 0.35776 0.42967 0.00000
O106 O 0.40087 0.30216 0.51673 0.00000
O107 O 0.41775 0.36804 0.42946 0.00000
O108 O 0.44953 0.30822 0.44117 0.00000
O109 O 0.29902 0.29066 0.46447 0.00000
O110 O 0.34828 0.21834 0.49311 0.00000
C111 C 0.24766 0.25054 0.47075 0.00000
C112 C 0.28626 0.17835 0.39553 0.00000
C113 C 0.23710 0.05387 0.47838 0.00000
O114 O 0.23979 0.13418 0.40056 0.00000
O115 O 0.20760 0.07511 0.49038 0.00000
O116 O 0.28364 0.08690 0.46071 0.00000
O117 O 0.22801 0.19629 0.47175 0.00000
O118 O 0.31911 0.20609 0.41973 0.00000
Ni119 Ni 0.15168 0.88551 0.29536 0.00000
Ni120 Ni 0.28708 0.91779 0.28949 0.00000
C121 C 0.24925 0.87513 0.35183 0.00000
C122 C 0.35779 0.89875 0.26301 0.00000
O123 O 0.30219 0.90126 0.35007 0.00000
O124 O 0.36808 0.95029 0.26281 0.00000
O125 O 0.30826 0.85869 0.27450 0.00000
O126 O 0.29069 0.99162 0.29782 0.00000
O127 O 0.21837 0.87004 0.32644 0.00000
C128 C 0.25057 0.00287 0.30411 0.00000
C129 C 0.17839 0.89211 0.22887 0.00000
C130 C 0.05391 0.81675 0.31172 0.00000
O131 O 0.13422 0.89439 0.23391 0.00000
O132 O 0.07515 0.86750 0.32372 0.00000
O133 O 0.08694 0.80325 0.29404 0.00000
O134 O 0.19633 0.96827 0.30510 0.00000
O135 O 0.20612 0.88698 0.25307 0.00000
Ni136 Ni 0.84834 0.73384 0.37131 0.00000
Ni137 Ni 0.71293 0.63071 0.37718 0.00000
C138 C 0.75076 0.62589 0.31484 0.00000
C139 C 0.64222 0.54095 0.40366 0.00000
O140 O 0.69783 0.59909 0.31660 0.00000
O141 O 0.63194 0.58221 0.40386 0.00000
O142 O 0.69176 0.55043 0.39216 0.00000
O143 O 0.70932 0.70093 0.36886 0.00000
O144 O 0.78164 0.65168 0.34022 0.00000
C145 C 0.74944 0.75230 0.36257 0.00000
C146 C 0.82162 0.71370 0.43780 0.00000
C147 C 0.94611 0.76285 0.35495 0.00000
O148 O 0.86580 0.76017 0.43277 0.00000
O149 O 0.92487 0.79236 0.34295 0.00000
O150 O 0.91308 0.71632 0.37262 0.00000
O151 O 0.80369 0.77195 0.36157 0.00000
O152 O 0.79389 0.68085 0.41360 0.00000
Ni153 Ni 0.11445 0.84830 0.53798 0.00000
Ni154 Ni 0.08217 0.71290 0.54384 0.00000
C155 C 0.12484 0.75073 0.48151 0.00000
C156 C 0.10121 0.64218 0.57033 0.00000
O157 O 0.09870 0.69779 0.48327 0.00000
O158 O 0.04967 0.63190 0.57053 0.00000
O159 O 0.14127 0.69172 0.55884 0.00000
O160 O 0.00834 0.70928 0.53552 0.00000
O161 O 0.12993 0.78161 0.50690 0.00000
C162 C 0.99710 0.74940 0.52923 0.00000
C163 C 0.10785 0.82158 0.60447 0.00000
C164 C 0.18321 0.94607 0.52162 0.00000
O165 O 0.10557 0.86576 0.59943 0.00000
O166 O 0.13247 0.92483 0.50962 0.00000
O167 O 0.19671 0.91304 0.53930 0.00000
O168 O 0.03170 0.80365 0.52823 0.00000
O169 O 0.11298 0.79386 0.58027 0.00000
Ni170 Ni 0.26604 0.11439 0.70467 0.00000
Ni171 Ni 0.36917 0.08212 0.71054 0.00000
C172 C 0.37400 0.12477 0.64821 0.00000
C173 C 0.45892 0.10117 0.73703 0.00000
O174 O 0.40080 0.09864 0.64997 0.00000
O175 O 0.41766 0.04963 0.73724 0.00000
O176 O 0.44944 0.14123 0.72554 0.00000
O177 O 0.29895 0.00828 0.70222 0.00000
O178 O 0.34820 0.12986 0.67359 0.00000
C179 C 0.24759 0.99704 0.69593 0.00000
C180 C 0.28616 0.10781 0.77116 0.00000
C181 C 0.23702 0.18314 0.68830 0.00000
O182 O 0.23970 0.10552 0.76612 0.00000
O183 O 0.20752 0.13239 0.67630 0.00000
O184 O 0.28355 0.19665 0.70598 0.00000
O185 O 0.22793 0.03163 0.69493 0.00000
O186 O 0.31901 0.11293 0.74696 0.00000
Ni187 Ni 0.15161 0.26613 0.87132 0.00000
Ni188 Ni 0.28701 0.36925 0.87719 0.00000
C189 C 0.24919 0.37408 0.81485 0.00000
C190 C 0.35773 0.45900 0.90367 0.00000
O191 O 0.30213 0.40087 0.81661 0.00000
O192 O 0.36801 0.41774 0.90388 0.00000
O193 O 0.30820 0.44953 0.89217 0.00000
O194 O 0.29062 0.29902 0.86887 0.00000
O195 O 0.21831 0.34829 0.84023 0.00000
C196 C 0.25049 0.24766 0.86258 0.00000
C197 C 0.17832 0.28626 0.93781 0.00000
C198 C 0.05384 0.23712 0.85495 0.00000
O199 O 0.13414 0.23980 0.93277 0.00000
O200 O 0.07508 0.20761 0.84296 0.00000
O201 O 0.08687 0.28366 0.87263 0.00000
O202 O 0.19625 0.22802 0.86158 0.00000
O203 O 0.20605 0.31911 0.91361 0.00000
H204 H 0.85656 0.37088 0.13493 0.00000
H205 H 0.84617 0.45627 0.14345 0.00000
C206 C 0.88438 0.39529 0.08340 0.00000
C207 C 0.86501 0.39871 0.11705 0.00000
C208 C 0.85919 0.44827 0.12201 0.00000
C209 C 0.87445 0.48366 0.09236 0.00000
S210 S 0.89540 0.45431 0.05742 0.00000
H211 H 0.53720 0.97049 0.26864 0.00000
H212 H 0.44763 0.97061 0.28283 0.00000
C213 C 0.49120 0.88992 0.24587 0.00000
C214 C 0.50023 0.93969 0.26297 0.00000
C215 C 0.44835 0.93981 0.27107 0.00000
C216 C 0.39900 0.89043 0.26004 0.00000
S217 S 0.41725 0.84241 0.23983 0.00000
H218 H 0.44180 0.64803 0.93975 0.00000
H219 H 0.34958 0.55666 0.93846 0.00000
C220 C 0.48468 0.60795 0.92013 0.00000
C221 C 0.43827 0.61295 0.93193 0.00000
C222 C 0.38485 0.56005 0.93106 0.00000
C223 C 0.38954 0.51402 0.91833 0.00000
S224 S 0.46183 0.53656 0.90786 0.00000
H225 H 0.04084 0.56269 0.54441 0.00000
H226 H 0.03165 0.46791 0.55530 0.00000
C227 C 0.11361 0.60244 0.57578 0.00000
C228 C 0.06674 0.55742 0.55875 0.00000
C229 C 0.06156 0.50257 0.56498 0.00000
C230 C 0.10459 0.50490 0.58658 0.00000
S231 S 0.15180 0.57642 0.59999 0.00000
H232 H 0.56773 0.03099 0.72933 0.00000
H233 H 0.47822 0.03124 0.71517 0.00000
C234 C 0.60122 0.11005 0.75399 0.00000
C235 C 0.56118 0.06128 0.73573 0.00000
C236 C 0.50928 0.06137 0.72765 0.00000
C237 C 0.50867 0.10989 0.73983 0.00000
S238 S 0.57423 0.15686 0.76116 0.00000
H239 H 0.52678 0.36032 0.37139 0.00000
H240 H 0.62287 0.44596 0.36454 0.00000
C241 C 0.51173 0.39437 0.41658 0.00000
C242 C 0.54177 0.39189 0.38719 0.00000
C243 C 0.59734 0.44158 0.38318 0.00000
C244 C 0.61038 0.48292 0.40922 0.00000
S245 S 0.55302 0.45921 0.43969 0.00000
H246 H 0.85127 0.02084 0.94438 0.00000
H247 H 0.89273 0.08623 0.99549 0.00000
C248 C 0.77586 0.97052 0.97195 0.00000
C249 C 0.83135 0.01574 0.96597 0.00000
C250 C 0.85525 0.05370 0.99554 0.00000
C251 C 0.81828 0.03836 0.02440 0.00000
S252 S 0.75297 0.97497 0.01492 0.00000
H253 H 0.76418 0.73602 0.22603 0.00000
H254 H 0.80680 0.70473 0.17931 0.00000
C255 C 0.76894 0.80040 0.19368 0.00000
C256 C 0.77517 0.75387 0.20354 0.00000
C257 C 0.79968 0.73565 0.17642 0.00000
C258 C 0.81208 0.76762 0.14539 0.00000
S259 S 0.79400 0.82206 0.15017 0.00000
H260 H 0.26101 0.27653 0.71959 0.00000
H261 H 0.22022 0.31080 0.67345 0.00000
C262 C 0.23237 0.19962 0.69303 0.00000
C263 C 0.24127 0.25452 0.69943 0.00000
C264 C 0.21780 0.27441 0.67265 0.00000
C265 C 0.19108 0.23528 0.64526 0.00000
S266 S 0.19416 0.17211 0.65324 0.00000
H267 H 0.01065 0.13898 0.87273 0.00000
H268 H 0.94896 0.10187 0.81972 0.00000
C269 C 0.03071 0.22206 0.86072 0.00000
C270 C 0.00495 0.16276 0.85669 0.00000
C271 C 0.96909 0.14127 0.82605 0.00000
C272 C 0.96652 0.18370 0.80639 0.00000
S273 S 0.01034 0.25174 0.82594 0.00000
H274 H 0.19819 0.89952 0.49330 0.00000
H275 H 0.24131 0.96759 0.44356 0.00000
C276 C 0.19105 0.96045 0.52288 0.00000
C277 C 0.20473 0.93754 0.49386 0.00000
C278 C 0.22953 0.97692 0.46502 0.00000
C279 C 0.23472 0.03026 0.47145 0.00000
S280 S 0.20934 0.03197 0.51438 0.00000
H281 H 0.99540 0.86114 0.37590 0.00000
H282 H 0.05763 0.89914 0.32317 0.00000
C283 C 0.96954 0.77767 0.36087 0.00000
C284 C 0.99899 0.83740 0.35877 0.00000
C285 C 0.03517 0.85938 0.32828 0.00000
C286 C 0.03428 0.81688 0.30683 0.00000
S287 S 0.98678 0.74822 0.32446 0.00000
H288 H 0.79472 0.12913 0.09954 0.00000
H289 H 0.72373 0.05188 0.13796 0.00000
C290 C 0.85899 0.14932 0.13643 0.00000
C291 C 0.80399 0.12013 0.12196 0.00000
C292 C 0.76294 0.07528 0.14417 0.00000
C293 C 0.78602 0.06922 0.17577 0.00000
S294 S 0.85988 0.12090 0.17828 0.00000
H295 H 0.71701 0.74109 0.29866 0.00000
H296 H 0.70943 0.80903 0.25810 0.00000
C297 C 0.72342 0.79120 0.34194 0.00000
C298 C 0.71778 0.77493 0.30646 0.00000
C299 C 0.71320 0.81420 0.28300 0.00000
C300 C 0.71478 0.86073 0.30020 0.00000
S301 S 0.72323 0.85626 0.34632 0.00000
H302 H 0.70759 0.79726 0.81338 0.00000
H303 H 0.73364 0.88036 0.77429 0.00000
C304 C 0.70694 0.84332 0.85713 0.00000
C305 C 0.71292 0.83284 0.82167 0.00000
C306 C 0.72782 0.88092 0.79904 0.00000
C307 C 0.73296 0.92863 0.81677 0.00000
S308 S 0.72014 0.91391 0.86254 0.00000
H309 H 0.88836 0.78986 0.05676 0.00000
H310 H 0.81719 0.80510 0.02452 0.00000
C311 C 0.86625 0.71653 0.02758 0.00000
C312 C 0.86455 0.76511 0.03860 0.00000
C313 C 0.82345 0.77401 0.01984 0.00000
C314 C 0.79352 0.73271 0.99404 0.00000
S315 S 0.81602 0.68119 0.99350 0.00000
H316 H 0.11525 0.21272 0.55868 0.00000
H317 H 0.18669 0.19799 0.52636 0.00000
C318 C 0.13393 0.28352 0.52775 0.00000
C319 C 0.13781 0.23661 0.53983 0.00000
C320 C 0.17905 0.22799 0.52103 0.00000
C321 C 0.20692 0.26783 0.49415 0.00000
S322 S 0.18226 0.31763 0.49261 0.00000
H323 H 0.81867 0.20114 0.69768 0.00000
H324 H 0.89368 0.26535 0.65554 0.00000
C325 C 0.84731 0.14269 0.69526 0.00000
C326 C 0.84588 0.19267 0.68767 0.00000
C327 C 0.88944 0.22992 0.66335 0.00000
C328 C 0.92506 0.20923 0.65225 0.00000
S329 S 0.90340 0.14171 0.67183 0.00000
H330 H 0.25658 0.01427 0.36910 0.00000
H331 H 0.26307 0.09076 0.40834 0.00000
C332 C 0.27491 0.06674 0.32521 0.00000
C333 C 0.26505 0.05091 0.36079 0.00000
C334 C 0.26900 0.09529 0.38351 0.00000
C335 C 0.28239 0.14579 0.36571 0.00000
S336 S 0.28913 0.13768 0.31979 0.00000
H337 H 0.12539 0.81845 0.10845 0.00000
H338 H 0.21128 0.87732 0.14509 0.00000
C339 C 0.07246 0.79985 0.15214 0.00000
C340 C 0.12369 0.82410 0.13309 0.00000
C341 C 0.17339 0.85834 0.15430 0.00000
C342 C 0.16089 0.86117 0.18975 0.00000
S343 S 0.08606 0.81963 0.19706 0.00000
H344 H 0.97976 0.81760 0.49454 0.00000
H345 H 0.89646 0.80749 0.46089 0.00000
C346 C 0.93482 0.73181 0.50876 0.00000
C347 C 0.94457 0.78257 0.49269 0.00000
C348 C 0.89637 0.77663 0.47311 0.00000
C349 C 0.84931 0.72123 0.47367 0.00000
S350 S 0.86477 0.67586 0.49957 0.00000
H351 H 0.06823 0.81830 0.67950 0.00000
H352 H 0.12708 0.90418 0.71616 0.00000
C353 C 0.13410 0.84403 0.64306 0.00000
C354 C 0.10618 0.84669 0.67349 0.00000
C355 C 0.14036 0.89633 0.69477 0.00000
C356 C 0.19498 0.93205 0.68109 0.00000
S357 S 0.20374 0.90406 0.64069 0.00000
H358 H 0.36589 0.21049 0.78197 0.00000
H359 H 0.35829 0.27841 0.82255 0.00000
C360 C 0.29302 0.14224 0.80367 0.00000
C361 C 0.33632 0.19906 0.79903 0.00000
C362 C 0.33179 0.23838 0.82246 0.00000
C363 C 0.28476 0.21234 0.84511 0.00000
S364 S 0.24601 0.13741 0.83767 0.00000
H365 H 0.21099 0.36788 0.00338 0.00000
H366 H 0.13381 0.34939 0.04588 0.00000
C367 C 0.15549 0.29651 0.97392 0.00000
C368 C 0.17305 0.33659 0.00127 0.00000
C369 C 0.12828 0.32596 0.02581 0.00000
C370 C 0.07582 0.27796 0.01743 0.00000
S371 S 0.08241 0.24472 0.97871 0.00000
H372 H 0.87123 0.15026 0.95460 0.00000
H373 H 0.82347 0.09559 0.90047 0.00000
C374 C 0.84345 0.20807 0.94445 0.00000
C375 C 0.85023 0.16054 0.93903 0.00000
C376 C 0.82240 0.12879 0.90775 0.00000
C377 C 0.79358 0.15126 0.88898 0.00000
S378 S 0.80209 0.21364 0.91020 0.00000
H379 H 0.54436 0.82886 0.09544 0.00000
H380 H 0.53651 0.76353 0.04705 0.00000
C381 C 0.62639 0.84553 0.10743 0.00000
C382 C 0.57408 0.82116 0.08955 0.00000
C383 C 0.56964 0.78347 0.06146 0.00000
C384 C 0.61858 0.77886 0.05726 0.00000
S385 S 0.67074 0.82127 0.08924 0.00000
H386 H 0.77616 0.54390 0.20832 0.00000
H387 H 0.71235 0.54387 0.25536 0.00000
C388 C 0.84110 0.62404 0.22403 0.00000
C389 C 0.78724 0.57455 0.22452 0.00000
C390 C 0.75038 0.57448 0.25185 0.00000
C391 C 0.77563 0.62362 0.27281 0.00000
S392 S 0.84613 0.67135 0.25789 0.00000
H393 H 0.22479 0.45516 0.70754 0.00000
H394 H 0.28845 0.45491 0.75459 0.00000
C395 C 0.15900 0.37596 0.72398 0.00000
C396 C 0.21335 0.42481 0.72402 0.00000
C397 C 0.25013 0.42472 0.75135 0.00000
C398 C 0.22433 0.37612 0.77275 0.00000
S399 S 0.15340 0.32907 0.75827 0.00000
H400 H 0.27809 0.15171 0.54646 0.00000
H401 H 0.27138 0.09727 0.60066 0.00000
C402 C 0.36437 0.20806 0.55562 0.00000
C403 C 0.30968 0.16148 0.56167 0.00000
C404 C 0.30587 0.12986 0.59300 0.00000
C405 C 0.35761 0.15147 0.61117 0.00000
S406 S 0.41182 0.21289 0.58933 0.00000
H407 H 0.22136 0.76305 0.45629 0.00000
H408 H 0.28546 0.82652 0.40924 0.00000
C409 C 0.15866 0.78267 0.44246 0.00000
C410 C 0.21120 0.78424 0.44081 0.00000
C411 C 0.24822 0.82086 0.41348 0.00000
C412 C 0.22439 0.84740 0.39368 0.00000
S413 S 0.15511 0.82739 0.40972 0.00000
loop_
_geom_bond_atom_site_label_1
_geom_bond_atom_site_label_2
_geom_bond_distance
_geom_bond_site_symmetry_2
_ccdc_geom_bond_type
Ni0 O8 2.304 . S
Ni0 O12 2.357 . S
Ni0 O13 2.109 . S
Ni0 O14 1.981 . S
Ni0 O15 1.927 . S
Ni0 O16 2.112 . S
Ni1 O4 2.357 1_554 S
Ni1 O5 2.109 . S
Ni1 O6 1.981 . S
Ni1 O7 1.927 . S
Ni1 O8 2.112 . S
Ni1 O16 2.304 . S
C2 O4 1.211 . D
C2 O8 1.207 1_556 S
C3 O5 1.247 . A
C3 O6 1.275 . A
O7 C9 1.256 1_655 A
C9 O15 1.256 1_455 A
C10 O12 1.211 . D
C10 O16 1.207 . S
C11 O13 1.247 . A
C11 O14 1.275 . A
Ni17 O25 2.304 . S
Ni17 O29 2.357 . S
Ni17 O30 2.109 . S
Ni17 O31 1.981 . S
Ni17 O32 1.927 . S
Ni17 O33 2.112 . S
Ni18 O21 2.357 . S
Ni18 O22 2.109 . S
Ni18 O23 1.981 . S
Ni18 O24 1.927 . S
Ni18 O25 2.112 . S
Ni18 O33 2.304 . S
C19 O21 1.211 . D
C19 O25 1.207 . S
C20 O22 1.247 . A
C20 O23 1.275 . A
O24 C26 1.256 1_565 A
C26 O32 1.256 1_545 A
C27 O29 1.211 . D
C27 O33 1.207 . S
C28 O30 1.247 . A
C28 O31 1.275 . A
Ni34 O42 2.304 . S
Ni34 O46 2.357 . S
Ni34 O47 2.109 . S
Ni34 O48 1.981 . S
Ni34 O49 1.927 . S
Ni34 O50 2.112 . S
Ni35 O38 2.357 1_556 S
Ni35 O39 2.109 . S
Ni35 O40 1.981 . S
Ni35 O41 1.927 . S
Ni35 O42 2.112 . S
Ni35 O50 2.304 . S
C36 O38 1.211 . D
C36 O42 1.207 1_554 S
C37 O39 1.247 . A
C37 O40 1.275 . A
O41 C43 1.256 . A
C43 O49 1.256 . A
C44 O46 1.211 . D
C44 O50 1.207 . S
C45 O47 1.247 . A
C45 O48 1.275 . A
Ni51 O59 2.304 . S
Ni51 O63 2.357 . S
Ni51 O64 2.109 . S
Ni51 O65 1.981 . S
Ni51 O66 1.927 . S
Ni51 O67 2.112 . S
Ni52 O55 2.357 . S
Ni52 O56 2.109 . S
Ni52 O57 1.981 . S
Ni52 O58 1.927 . S
Ni52 O59 2.112 . S
Ni52 O67 2.304 . S
C53 O55 1.211 . D
C53 O59 1.207 . S
C54 O56 1.247 . A
C54 O57 1.275 . A
O58 C60 1.256 1_655 A
C60 O66 1.256 1_455 A
C61 O63 1.211 . D
C61 O67 1.207 . S
C62 O64 1.247 . A
C62 O65 1.275 . A
Ni68 O76 2.304 . S
Ni68 O80 2.357 . S
Ni68 O81 2.109 . S
Ni68 O82 1.981 . S
Ni68 O83 1.927 . S
Ni68 O84 2.112 . S
Ni69 O72 2.357 . S
Ni69 O73 2.109 . S
Ni69 O74 1.981 . S
Ni69 O75 1.927 . S
Ni69 O76 2.112 . S
Ni69 O84 2.304 . S
C70 O72 1.211 . D
C70 O76 1.207 . S
C71 O73 1.247 . A
C71 O74 1.275 . A
O75 C77 1.256 1_455 A
C77 O83 1.256 1_655 A
C78 O80 1.211 . D
C78 O84 1.207 . S
C79 O81 1.247 . A
C79 O82 1.275 . A
Ni85 O93 2.304 . S
Ni85 O97 2.357 . S
Ni85 O98 2.109 . S
Ni85 O99 1.981 . S
Ni85 O100 1.927 . S
Ni85 O101 2.112 . S
Ni86 O89 2.357 . S
Ni86 O90 2.109 . S
Ni86 O91 1.981 . S
Ni86 O92 1.927 . S
Ni86 O93 2.112 . S
Ni86 O101 2.304 . S
C87 O89 1.211 . D
C87 O93 1.207 . S
C88 O90 1.247 . A
C88 O91 1.275 . A
O92 C94 1.256 1_545 A
C94 O100 1.256 1_565 A
C95 O97 1.211 . D
C95 O101 1.207 . S
C96 O98 1.247 . A
C96 O99 1.275 . A
Ni102 O110 2.304 . S
Ni102 O114 2.357 . S
Ni102 O115 2.109 . S
Ni102 O116 1.981 . S
Ni102 O117 1.927 . S
Ni102 O118 2.112 . S
Ni103 O106 2.357 . S
Ni103 O107 2.109 . S
Ni103 O108 1.981 . S
Ni103 O109 1.927 . S
Ni103 O110 2.112 . S
Ni103 O118 2.304 . S
C104 O106 1.211 . D
C104 O110 1.207 . S
C105 O107 1.247 . A
C105 O108 1.275 . A
O109 C111 1.256 . A
C111 O117 1.256 . A
C112 O114 1.211 . D
C112 O118 1.207 . S
C113 O115 1.247 . A
C113 O116 1.275 . A
Ni119 O127 2.304 . S
Ni119 O131 2.357 . S
Ni119 O132 2.109 . S
Ni119 O133 1.981 . S
Ni119 O134 1.927 . S
Ni119 O135 2.112 . S
Ni120 O123 2.357 . S
Ni120 O124 2.109 . S
Ni120 O125 1.981 . S
Ni120 O126 1.927 . S
Ni120 O127 2.112 . S
Ni120 O135 2.304 . S
C121 O123 1.211 . D
C121 O127 1.207 . S
C122 O124 1.247 . A
C122 O125 1.275 . A
O126 C128 1.256 1_565 A
C128 O134 1.256 1_545 A
C129 O131 1.211 . D
C129 O135 1.207 . S
C130 O132 1.247 . A
C130 O133 1.275 . A
Ni136 O144 2.304 . S
Ni136 O148 2.357 . S
Ni136 O149 2.109 . S
Ni136 O150 1.981 . S
Ni136 O151 1.927 . S
Ni136 O152 2.112 . S
Ni137 O140 2.357 . S
Ni137 O141 2.109 . S
Ni137 O142 1.981 . S
Ni137 O143 1.927 . S
Ni137 O144 2.112 . S
Ni137 O152 2.304 . S
C138 O140 1.211 . D
C138 O144 1.207 . S
C139 O141 1.247 . A
C139 O142 1.275 . A
O143 C145 1.256 . A
C145 O151 1.256 . A
C146 O148 1.211 . D
C146 O152 1.207 . S
C147 O149 1.247 . A
C147 O150 1.275 . A
Ni153 O161 2.304 . S
Ni153 O165 2.357 . S
Ni153 O166 2.109 . S
Ni153 O167 1.981 . S
Ni153 O168 1.927 . S
Ni153 O169 2.112 . S
Ni154 O157 2.357 . S
Ni154 O158 2.109 . S
Ni154 O159 1.981 . S
Ni154 O160 1.927 . S
Ni154 O161 2.112 . S
Ni154 O169 2.304 . S
C155 O157 1.211 . D
C155 O161 1.207 . S
C156 O158 1.247 . A
C156 O159 1.275 . A
O160 C162 1.256 1_455 A
C162 O168 1.256 1_655 A
C163 O165 1.211 . D
C163 O169 1.207 . S
C164 O166 1.247 . A
C164 O167 1.275 . A
Ni170 O178 2.304 . S
Ni170 O182 2.357 . S
Ni170 O183 2.109 . S
Ni170 O184 1.981 . S
Ni170 O185 1.927 . S
Ni170 O186 2.112 . S
Ni171 O174 2.357 . S
Ni171 O175 2.109 . S
Ni171 O176 1.981 . S
Ni171 O177 1.927 . S
Ni171 O178 2.112 . S
Ni171 O186 2.304 . S
C172 O174 1.211 . D
C172 O178 1.207 . S
C173 O175 1.247 . A
C173 O176 1.275 . A
O177 C179 1.256 1_545 A
C179 O185 1.256 1_565 A
C180 O182 1.211 . D
C180 O186 1.207 . S
C181 O183 1.247 . A
C181 O184 1.275 . A
Ni187 O195 2.304 . S
Ni187 O199 2.357 . S
Ni187 O200 2.109 . S
Ni187 O201 1.981 . S
Ni187 O202 1.927 . S
Ni187 O203 2.112 . S
Ni188 O191 2.357 . S
Ni188 O192 2.109 . S
Ni188 O193 1.981 . S
Ni188 O194 1.927 . S
Ni188 O195 2.112 . S
Ni188 O203 2.304 . S
C189 O191 1.211 . D
C189 O195 1.207 . S
C190 O192 1.247 . A
C190 O193 1.275 . A
O194 C196 1.256 . A
C196 O202 1.256 . A
C197 O199 1.211 . D
C197 O203 1.207 . S
C198 O200 1.247 . A
C198 O201 1.275 . A
H204 C207 0.929 . S
H205 C208 0.930 . S
C206 C207 1.367 . A
C206 S210 1.727 . A
C207 C208 1.403 . A
C208 C209 1.365 . A
C209 S210 1.734 . A
H211 C214 0.929 . S
H212 C215 0.930 . S
C213 C214 1.367 . A
C213 S217 1.727 . A
C214 C215 1.403 . A
C215 C216 1.365 . A
C216 S217 1.734 . A
H218 C221 0.929 . S
H219 C222 0.930 . S
C220 C221 1.367 . A
C220 S224 1.727 . A
C221 C222 1.403 . A
C222 C223 1.365 . A
C223 S224 1.734 . A
H225 C228 0.929 . S
H226 C229 0.930 . S
C227 C228 1.367 . A
C227 S231 1.727 . A
C228 C229 1.403 . A
C229 C230 1.365 . A
C230 S231 1.734 . A
H232 C235 0.929 . S
H233 C236 0.930 . S
C234 C235 1.367 . A
C234 S238 1.727 . A
C235 C236 1.403 . A
C236 C237 1.365 . A
C237 S238 1.734 . A
H239 C242 0.929 . S
H240 C243 0.930 . S
C241 C242 1.367 . A
C241 S245 1.727 . A
C242 C243 1.403 . A
C243 C244 1.365 . A
C244 S245 1.734 . A
H246 C249 0.929 . S
H247 C250 0.930 . S
C248 C249 1.367 1_565 A
C248 S252 1.727 1_556 A
C249 C250 1.403 . A
C250 C251 1.365 1_556 A
C251 S252 1.734 1_545 A
H253 C256 0.929 . S
H254 C257 0.930 . S
C255 C256 1.367 . A
C255 S259 1.727 . A
C256 C257 1.403 . A
C257 C258 1.365 . A
C258 S259 1.734 . A
H260 C263 0.929 . S
H261 C264 0.930 . S
C262 C263 1.367 . A
C262 S266 1.727 . A
C263 C264 1.403 . A
C264 C265 1.365 . A
C265 S266 1.734 . A
H267 C270 0.929 . S
H268 C271 0.930 . S
C269 C270 1.367 . A
C269 S273 1.727 . A
C270 C271 1.403 1_455 A
C271 C272 1.365 . A
C272 S273 1.734 1_655 A
H274 C277 0.929 . S
H275 C278 0.930 . S
C276 C277 1.367 . A
C276 S280 1.727 1_565 A
C277 C278 1.403 . A
C278 C279 1.365 1_565 A
C279 S280 1.734 . A
H281 C284 0.929 . S
H282 C285 0.930 . S
C283 C284 1.367 . A
C283 S287 1.727 . A
C284 C285 1.403 1_655 A
C285 C286 1.365 . A
C286 S287 1.734 1_455 A
H288 C291 0.929 . S
H289 C292 0.930 . S
C290 C291 1.367 . A
C290 S294 1.727 . A
C291 C292 1.403 . A
C292 C293 1.365 . A
C293 S294 1.734 . A
H295 C298 0.929 . S
H296 C299 0.930 . S
C297 C298 1.367 . A
C297 S301 1.727 . A
C298 C299 1.403 . A
C299 C300 1.365 . A
C300 S301 1.734 . A
H302 C305 0.929 . S
H303 C306 0.930 . S
C304 C305 1.367 . A
C304 S308 1.727 . A
C305 C306 1.403 . A
C306 C307 1.365 . A
C307 S308 1.734 . A
H309 C312 0.929 . S
H310 C313 0.930 . S
C311 C312 1.367 . A
C311 S315 1.727 1_554 A
C312 C313 1.403 . A
C313 C314 1.365 1_554 A
C314 S315 1.734 . A
H316 C319 0.929 . S
H317 C320 0.930 . S
C318 C319 1.367 . A
C318 S322 1.727 . A
C319 C320 1.403 . A
C320 C321 1.365 . A
C321 S322 1.734 . A
H323 C326 0.929 . S
H324 C327 0.930 . S
C325 C326 1.367 . A
C325 S329 1.727 . A
C326 C327 1.403 . A
C327 C328 1.365 . A
C328 S329 1.734 . A
H330 C333 0.929 . S
H331 C334 0.930 . S
C332 C333 1.367 . A
C332 S336 1.727 . A
C333 C334 1.403 . A
C334 C335 1.365 . A
C335 S336 1.734 . A
H337 C340 0.929 . S
H338 C341 0.930 . S
C339 C340 1.367 . A
C339 S343 1.727 . A
C340 C341 1.403 . A
C341 C342 1.365 . A
C342 S343 1.734 . A
H344 C347 0.929 . S
H345 C348 0.930 . S
C346 C347 1.367 . A
C346 S350 1.727 . A
C347 C348 1.403 . A
C348 C349 1.365 . A
C349 S350 1.734 . A
H351 C354 0.929 . S
H352 C355 0.930 . S
C353 C354 1.367 . A
C353 S357 1.727 . A
C354 C355 1.403 . A
C355 C356 1.365 . A
C356 S357 1.734 . A
H358 C361 0.929 . S
H359 C362 0.930 . S
C360 C361 1.367 . A
C360 S364 1.727 . A
C361 C362 1.403 . A
C362 C363 1.365 . A
C363 S364 1.734 . A
H365 C368 0.929 . S
H366 C369 0.930 . S
C367 C368 1.367 1_556 A
C367 S371 1.727 . A
C368 C369 1.403 . A
C369 C370 1.365 . A
C370 S371 1.734 1_554 A
H372 C375 0.929 . S
H373 C376 0.930 . S
C374 C375 1.367 . A
C374 S378 1.727 . A
C375 C376 1.403 . A
C376 C377 1.365 . A
C377 S378 1.734 . A
H379 C382 0.929 . S
H380 C383 0.930 . S
C381 C382 1.367 . A
C381 S385 1.727 . A
C382 C383 1.403 . A
C383 C384 1.365 . A
C384 S385 1.734 . A
H386 C389 0.929 . S
H387 C390 0.930 . S
C388 C389 1.367 . A
C388 S392 1.727 . A
C389 C390 1.403 . A
C390 C391 1.365 . A
C391 S392 1.734 . A
H393 C396 0.929 . S
H394 C397 0.930 . S
C395 C396 1.367 . A
C395 S399 1.727 . A
C396 C397 1.403 . A
C397 C398 1.365 . A
C398 S399 1.734 . A
H400 C403 0.929 . S
H401 C404 0.930 . S
C402 C403 1.367 . A
C402 S406 1.727 . A
C403 C404 1.403 . A
C404 C405 1.365 . A
C405 S406 1.734 . A
H407 C410 0.929 . S
H408 C411 0.930 . S
C409 C410 1.367 . A
C409 S413 1.727 . A
C410 C411 1.403 . A
C411 C412 1.365 . A
C412 S413 1.734 . A
C206 C3 1.315 . S
C209 C54 1.324 . S
C213 C20 1.258 . S
C216 C122 1.217 . S
C220 C37 1.343 . S
C223 C190 1.374 . S
C227 C156 1.261 . S
C230 C71 1.224 . S
C234 C88 1.258 . S
C237 C173 1.219 . S
C241 C105 1.326 . S
C244 C139 1.344 . S
C248 C45 0.607 . S
C251 C11 0.444 . S
C255 C28 0.567 . S
C258 C62 0.216 . S
C262 C181 0.537 . S
C265 C79 0.237 . S
C269 C198 0.577 . S
C272 C96 0.570 . S
C276 C164 0.332 . S
C279 C113 0.647 . S
C283 C147 0.584 . S
C286 C130 0.550 . S
C290 C10 1.442 . S
C293 C26 1.689 . S
C297 C145 1.677 . S
C300 C27 1.366 . S
C304 C44 1.576 . S
C307 C94 1.701 . S
C311 C61 1.471 . S
C314 C43 1.613 . S
C318 C78 1.468 . S
C321 C111 1.614 . S
C325 C95 1.493 . S
C328 C77 1.735 . S
C332 C128 1.668 . S
C335 C112 1.371 . S
C339 C60 1.713 . S
C342 C129 1.613 . S
C346 C162 1.652 . S
C349 C146 1.481 . S
C353 C163 1.569 . S
C356 C179 1.670 . S
C360 C180 1.464 . S
C363 C196 1.717 . S
C367 C197 1.545 . S
C370 C9 1.741 . S
C374 C2 1.689 . S
C377 C87 1.694 . S
C381 C19 1.703 . S
C384 C36 1.671 . S
C388 C53 1.686 . S
C391 C138 1.702 . S
C395 C70 1.686 . S
C398 C189 1.703 . S
C402 C104 1.691 . S
C405 C172 1.694 . S
C409 C155 1.687 . S
C412 C121 1.699 . S
