# Generated by pormake.
# Topology yfh, (5)-cn, num edge types: 1
# Building blocks:
#     Node 0, Type 0, BuildingBlock: N391, # of connection points: 5
#     Node 1, Type 0, BuildingBlock: N391, # of connection points: 5
#     Node 2, Type 0, BuildingBlock: N391, # of connection points: 5
#     Node 3, Type 0, BuildingBlock: N391, # of connection points: 5
#     Node 4, Type 0, BuildingBlock: N391, # of connection points: 5
#     Node 5, Type 0, BuildingBlock: N391, # of connection points: 5
#     Node 6, Type 0, BuildingBlock: N391, # of connection points: 5
#     Node 7, Type 0, BuildingBlock: N391, # of connection points: 5
#     Edge 8, Type (0, 0), BuildingBlock: E127, # of connection points: 2
#     Edge 9, Type (0, 0), BuildingBlock: E127, # of connection points: 2
#     Edge 10, Type (0, 0), BuildingBlock: E127, # of connection points: 2
#     Edge 11, Type (0, 0), BuildingBlock: E127, # of connection points: 2
#     Edge 12, Type (0, 0), BuildingBlock: E127, # of connection points: 2
#     Edge 13, Type (0, 0), BuildingBlock: E127, # of connection points: 2
#     Edge 14, Type (0, 0), BuildingBlock: E127, # of connection points: 2
#     Edge 15, Type (0, 0), BuildingBlock: E127, # of connection points: 2
#     Edge 16, Type (0, 0), BuildingBlock: E127, # of connection points: 2
#     Edge 17, Type (0, 0), BuildingBlock: E127, # of connection points: 2
#     Edge 18, Type (0, 0), BuildingBlock: E127, # of connection points: 2
#     Edge 19, Type (0, 0), BuildingBlock: E127, # of connection points: 2
#     Edge 20, Type (0, 0), BuildingBlock: E127, # of connection points: 2
#     Edge 21, Type (0, 0), BuildingBlock: E127, # of connection points: 2
#     Edge 22, Type (0, 0), BuildingBlock: E127, # of connection points: 2
#     Edge 23, Type (0, 0), BuildingBlock: E127, # of connection points: 2
#     Edge 24, Type (0, 0), BuildingBlock: E127, # of connection points: 2
#     Edge 25, Type (0, 0), BuildingBlock: E127, # of connection points: 2
#     Edge 26, Type (0, 0), BuildingBlock: E127, # of connection points: 2
#     Edge 27, Type (0, 0), BuildingBlock: E127, # of connection points: 2
# Relax obj value: 0.286
# Max RMSD: 0.218
# Mean RMSD: 0.218
data_yfh+N391+E127
_symmetry_space_group_name_H-M    P1
_symmetry_Int_Tables_number       1
_symmetry_cell_setting            triclinic
loop_
_symmetry_equiv_pos_as_xyz
'x, y, z'
_cell_length_a     22.258
_cell_length_b     22.258
_cell_length_c     34.087
_cell_angle_alpha  90.001
_cell_angle_beta   90.002
_cell_angle_gamma  90.000
loop_
_atom_site_label
_atom_site_type_symbol
_atom_site_fract_x
_atom_site_fract_y
_atom_site_fract_z
_atom_type_partial_charge
Cu0 Cu 0.69889 0.13961 0.85444 0.00000
Cu1 Cu 0.68740 0.13585 0.95647 0.00000
Cu2 Cu 0.58141 0.14646 0.89813 0.00000
Cu3 Cu 0.57448 0.16316 0.80632 0.00000
C4 C 0.63042 0.03977 0.82324 0.00000
C5 C 0.79334 0.17528 0.91210 0.00000
O6 O 0.50171 0.17919 0.89069 0.00000
O7 O 0.49520 0.19031 0.82584 0.00000
O8 O 0.72784 0.17783 0.80789 0.00000
O9 O 0.64327 0.18406 0.77205 0.00000
O10 O 0.54673 0.09361 0.93723 0.00000
O11 O 0.62302 0.09106 0.97987 0.00000
C12 C 0.47573 0.19533 0.85971 0.00000
C13 C 0.69780 0.19454 0.77845 0.00000
O14 O 0.68304 0.05979 0.82820 0.00000
O15 O 0.58331 0.07047 0.82582 0.00000
C16 C 0.57309 0.07363 0.96712 0.00000
O17 O 0.61591 0.18791 0.85318 0.00000
O18 O 0.66366 0.10996 0.90375 0.00000
O19 O 0.77438 0.17033 0.87834 0.00000
O20 O 0.76360 0.16874 0.94285 0.00000
Cu21 Cu 0.86039 0.30112 0.64556 0.00000
Cu22 Cu 0.86415 0.31260 0.54353 0.00000
Cu23 Cu 0.85354 0.41859 0.60187 0.00000
Cu24 Cu 0.83685 0.42552 0.69368 0.00000
C25 C 0.96023 0.36958 0.67676 0.00000
C26 C 0.82472 0.20667 0.58790 0.00000
O27 O 0.82081 0.49830 0.60931 0.00000
O28 O 0.80969 0.50480 0.67416 0.00000
O29 O 0.82217 0.27216 0.69211 0.00000
O30 O 0.81594 0.35673 0.72795 0.00000
O31 O 0.90639 0.45327 0.56277 0.00000
O32 O 0.90894 0.37698 0.52013 0.00000
C33 C 0.80467 0.52427 0.64029 0.00000
C34 C 0.80546 0.30220 0.72155 0.00000
O35 O 0.94021 0.31696 0.67180 0.00000
O36 O 0.92953 0.41670 0.67418 0.00000
C37 C 0.92637 0.42691 0.53288 0.00000
O38 O 0.81209 0.38409 0.64682 0.00000
O39 O 0.89004 0.33634 0.59625 0.00000
O40 O 0.82967 0.22563 0.62166 0.00000
O41 O 0.83126 0.23640 0.55715 0.00000
Cu42 Cu 0.30112 0.86040 0.35444 0.00000
Cu43 Cu 0.31261 0.86416 0.45647 0.00000
Cu44 Cu 0.41859 0.85354 0.39813 0.00000
Cu45 Cu 0.42552 0.83685 0.30632 0.00000
C46 C 0.36958 0.96024 0.32324 0.00000
C47 C 0.20667 0.82473 0.41210 0.00000
O48 O 0.49830 0.82082 0.39069 0.00000
O49 O 0.50480 0.80970 0.32584 0.00000
O50 O 0.27216 0.82218 0.30789 0.00000
O51 O 0.35672 0.81594 0.27205 0.00000
O52 O 0.45328 0.90640 0.43724 0.00000
O53 O 0.37699 0.90895 0.47987 0.00000
C54 C 0.52427 0.80468 0.35972 0.00000
C55 C 0.30220 0.80547 0.27845 0.00000
O56 O 0.31696 0.94022 0.32820 0.00000
O57 O 0.41670 0.92954 0.32583 0.00000
C58 C 0.42692 0.92638 0.46713 0.00000
O59 O 0.38409 0.81209 0.35318 0.00000
O60 O 0.33634 0.89004 0.40375 0.00000
O61 O 0.22563 0.82968 0.37834 0.00000
O62 O 0.23641 0.83127 0.44285 0.00000
Cu63 Cu 0.63960 0.80112 0.60444 0.00000
Cu64 Cu 0.63585 0.81261 0.70647 0.00000
Cu65 Cu 0.64646 0.91859 0.64813 0.00000
Cu66 Cu 0.66315 0.92552 0.55632 0.00000
C67 C 0.53976 0.86958 0.57324 0.00000
C68 C 0.67527 0.70667 0.66210 0.00000
O69 O 0.67919 0.99830 0.64069 0.00000
O70 O 0.69030 0.00480 0.57584 0.00000
O71 O 0.67782 0.77216 0.55789 0.00000
O72 O 0.68406 0.85672 0.52205 0.00000
O73 O 0.59360 0.95328 0.68724 0.00000
O74 O 0.59105 0.87699 0.72987 0.00000
C75 C 0.69533 0.02427 0.60972 0.00000
C76 C 0.69453 0.80220 0.52845 0.00000
O77 O 0.55978 0.81696 0.57820 0.00000
O78 O 0.57047 0.91670 0.57583 0.00000
C79 C 0.57363 0.92692 0.71713 0.00000
O80 O 0.68791 0.88409 0.60318 0.00000
O81 O 0.60996 0.83634 0.65375 0.00000
O82 O 0.67033 0.72563 0.62834 0.00000
O83 O 0.66873 0.73640 0.69285 0.00000
Cu84 Cu 0.36040 0.19888 0.10444 0.00000
Cu85 Cu 0.36415 0.18739 0.20647 0.00000
Cu86 Cu 0.35354 0.08141 0.14813 0.00000
Cu87 Cu 0.33685 0.07448 0.05632 0.00000
C88 C 0.46024 0.13041 0.07324 0.00000
C89 C 0.32473 0.29333 0.16210 0.00000
O90 O 0.32081 0.00170 0.14068 0.00000
O91 O 0.30970 0.99520 0.07584 0.00000
O92 O 0.32218 0.22783 0.05789 0.00000
O93 O 0.31594 0.14327 0.02205 0.00000
O94 O 0.40640 0.04672 0.18723 0.00000
O95 O 0.40895 0.12301 0.22987 0.00000
C96 C 0.30467 0.97572 0.10971 0.00000
C97 C 0.30547 0.19779 0.02845 0.00000
O98 O 0.44022 0.18304 0.07820 0.00000
O99 O 0.42954 0.08330 0.07583 0.00000
C100 C 0.42638 0.07308 0.21713 0.00000
O101 O 0.31209 0.11590 0.10318 0.00000
O102 O 0.39004 0.16365 0.15375 0.00000
O103 O 0.32967 0.27437 0.12834 0.00000
O104 O 0.33127 0.26359 0.19285 0.00000
Cu105 Cu 0.19889 0.36040 0.89556 0.00000
Cu106 Cu 0.18739 0.36415 0.79353 0.00000
Cu107 Cu 0.08141 0.35354 0.85187 0.00000
Cu108 Cu 0.07448 0.33685 0.94368 0.00000
C109 C 0.13042 0.46024 0.92676 0.00000
C110 C 0.29333 0.32473 0.83790 0.00000
O111 O 0.00170 0.32081 0.85931 0.00000
O112 O 0.99521 0.30970 0.92416 0.00000
O113 O 0.22784 0.32218 0.94211 0.00000
O114 O 0.14328 0.31594 0.97795 0.00000
O115 O 0.04672 0.40640 0.81276 0.00000
O116 O 0.12301 0.40895 0.77013 0.00000
C117 C 0.97573 0.30467 0.89028 0.00000
C118 C 0.19780 0.30547 0.97155 0.00000
O119 O 0.18304 0.44022 0.92180 0.00000
O120 O 0.08331 0.42953 0.92417 0.00000
C121 C 0.07308 0.42638 0.78287 0.00000
O122 O 0.11591 0.31209 0.89682 0.00000
O123 O 0.16366 0.39004 0.84625 0.00000
O124 O 0.27437 0.32967 0.87166 0.00000
O125 O 0.26360 0.33127 0.80715 0.00000
Cu126 Cu 0.13960 0.69888 0.14556 0.00000
Cu127 Cu 0.13584 0.68739 0.04353 0.00000
Cu128 Cu 0.14646 0.58141 0.10187 0.00000
Cu129 Cu 0.16315 0.57448 0.19368 0.00000
C130 C 0.03976 0.63042 0.17676 0.00000
C131 C 0.17527 0.79333 0.08790 0.00000
O132 O 0.17918 0.50170 0.10931 0.00000
O133 O 0.19030 0.49520 0.17416 0.00000
O134 O 0.17782 0.72783 0.19211 0.00000
O135 O 0.18406 0.64327 0.22795 0.00000
O136 O 0.09360 0.54672 0.06276 0.00000
O137 O 0.09105 0.62301 0.02013 0.00000
C138 C 0.19532 0.47572 0.14029 0.00000
C139 C 0.19453 0.69780 0.22155 0.00000
O140 O 0.05978 0.68304 0.17180 0.00000
O141 O 0.07046 0.58330 0.17417 0.00000
C142 C 0.07362 0.57308 0.03287 0.00000
O143 O 0.18791 0.61590 0.14682 0.00000
O144 O 0.10996 0.66365 0.09625 0.00000
O145 O 0.17032 0.77437 0.12166 0.00000
O146 O 0.16873 0.76359 0.05715 0.00000
Cu147 Cu 0.80112 0.63961 0.39556 0.00000
Cu148 Cu 0.81261 0.63585 0.29353 0.00000
Cu149 Cu 0.91859 0.64646 0.35187 0.00000
Cu150 Cu 0.92552 0.66315 0.44368 0.00000
C151 C 0.86958 0.53976 0.42676 0.00000
C152 C 0.70667 0.67527 0.33790 0.00000
O153 O 0.99830 0.67919 0.35932 0.00000
O154 O 0.00480 0.69030 0.42416 0.00000
O155 O 0.77216 0.67783 0.44211 0.00000
O156 O 0.85673 0.68406 0.47795 0.00000
O157 O 0.95328 0.59360 0.31277 0.00000
O158 O 0.87698 0.59105 0.27013 0.00000
C159 C 0.02427 0.69533 0.39029 0.00000
C160 C 0.80220 0.69454 0.47155 0.00000
O161 O 0.81696 0.55978 0.42180 0.00000
O162 O 0.91670 0.57047 0.42418 0.00000
C163 C 0.92692 0.57363 0.28287 0.00000
O164 O 0.88409 0.68791 0.39682 0.00000
O165 O 0.83634 0.60996 0.34625 0.00000
O166 O 0.72563 0.67033 0.37166 0.00000
O167 O 0.73640 0.66873 0.30715 0.00000
C168 C 0.68633 0.21723 0.75179 0.00000
H169 H 0.78377 0.25149 0.70789 0.00000
H170 H 0.80189 0.24309 0.75187 0.00000
H171 H 0.69694 0.30071 0.72543 0.00000
H172 H 0.71627 0.30129 0.76971 0.00000
H173 H 0.64478 0.22435 0.75900 0.00000
H174 H 0.68653 0.19505 0.72725 0.00000
C175 C 0.78289 0.27044 0.73350 0.00000
C176 C 0.71803 0.27825 0.74554 0.00000
C177 C 0.31173 0.78658 0.24949 0.00000
H178 H 0.20907 0.75347 0.21057 0.00000
H179 H 0.19857 0.75315 0.25593 0.00000
H180 H 0.30099 0.70754 0.21784 0.00000
H181 H 0.28983 0.69818 0.26289 0.00000
H182 H 0.35463 0.78109 0.25306 0.00000
H183 H 0.30592 0.81270 0.22698 0.00000
C184 C 0.21558 0.73042 0.23433 0.00000
C185 C 0.28249 0.72500 0.24093 0.00000
C186 C 0.68196 0.77149 0.51027 0.00000
H187 H 0.76884 0.68483 0.51771 0.00000
H188 H 0.79786 0.74731 0.50872 0.00000
H189 H 0.69512 0.70064 0.47154 0.00000
H190 H 0.72651 0.75986 0.45724 0.00000
H191 H 0.64434 0.78386 0.49839 0.00000
H192 H 0.67254 0.74591 0.53252 0.00000
C193 C 0.77751 0.71326 0.49691 0.00000
C194 C 0.71860 0.73495 0.48005 0.00000
C195 C 0.29004 0.21998 0.03417 0.00000
H196 H 0.17974 0.25432 0.00614 0.00000
H197 H 0.22523 0.24558 0.97165 0.00000
H198 H 0.25090 0.30361 0.04302 0.00000
H199 H 0.29611 0.30385 0.00769 0.00000
H200 H 0.32256 0.22715 0.05253 0.00000
H201 H 0.25880 0.19797 0.04792 0.00000
C202 C 0.21272 0.27310 0.99216 0.00000
C203 C 0.26446 0.28097 0.02039 0.00000
C204 C 0.62103 0.97123 0.81510 0.00000
H205 H 0.61675 0.94305 0.73681 0.00000
H206 H 0.57937 0.00107 0.74540 0.00000
H207 H 0.57851 0.89635 0.79160 0.00000
H208 H 0.53365 0.94958 0.79894 0.00000
H209 H 0.61658 0.95784 0.84203 0.00000
H210 H 0.66083 0.95959 0.80623 0.00000
C211 C 0.57859 0.95753 0.74678 0.00000
C212 C 0.57350 0.93949 0.78938 0.00000
C213 C 0.02942 0.42443 0.77266 0.00000
H214 H 0.03009 0.34580 0.71070 0.00000
H215 H 0.04862 0.41020 0.69693 0.00000
H216 H 0.95370 0.38408 0.74868 0.00000
H217 H 0.96439 0.44888 0.73194 0.00000
H218 H 0.00797 0.44076 0.79503 0.00000
H219 H 0.04780 0.38686 0.78078 0.00000
C220 C 0.01454 0.38505 0.70366 0.00000
C221 C 0.98419 0.41167 0.73930 0.00000
C222 C 0.35957 0.01576 0.30451 0.00000
H223 H 0.39938 0.01190 0.22839 0.00000
H224 H 0.45283 0.00305 0.25760 0.00000
H225 H 0.36037 0.08822 0.26611 0.00000
H226 H 0.41692 0.08751 0.29361 0.00000
H227 H 0.33632 0.03665 0.32435 0.00000
H228 H 0.33191 0.99202 0.28884 0.00000
C229 C 0.42686 0.03293 0.24568 0.00000
C230 C 0.39061 0.06249 0.27781 0.00000
C231 C 0.42122 0.93833 0.49727 0.00000
H232 H 0.48032 0.93951 0.56789 0.00000
H233 H 0.52372 0.92008 0.53411 0.00000
H234 H 0.40483 0.87965 0.54344 0.00000
H235 H 0.44836 0.85192 0.51207 0.00000
H236 H 0.38650 0.92536 0.48230 0.00000
H237 H 0.40987 0.97406 0.51185 0.00000
C238 C 0.49208 0.90600 0.55140 0.00000
C239 C 0.43877 0.88828 0.52652 0.00000
C240 C 0.52662 0.12973 0.06149 0.00000
H241 H 0.54015 0.11555 0.98204 0.00000
H242 H 0.49670 0.06681 0.99896 0.00000
H243 H 0.60538 0.10316 0.03377 0.00000
H244 H 0.56831 0.04824 0.04951 0.00000
H245 H 0.54561 0.13488 0.08688 0.00000
H246 H 0.52512 0.16879 0.04882 0.00000
C247 C 0.53869 0.07758 0.99595 0.00000
C248 C 0.56520 0.08678 0.03631 0.00000
C249 C 0.06751 0.57871 0.00473 0.00000
H250 H 0.06601 0.52960 0.93093 0.00000
H251 H 0.07347 0.47948 0.96271 0.00000
H252 H 0.13399 0.59044 0.96265 0.00000
H253 H 0.14991 0.53907 0.99243 0.00000
H254 H 0.08398 0.60873 0.02235 0.00000
H255 H 0.03621 0.59778 0.98927 0.00000
C256 C 0.09481 0.51027 0.94815 0.00000
C257 C 0.11768 0.55650 0.97696 0.00000
C258 C 0.92270 0.55475 0.25083 0.00000
H259 H 0.99250 0.55650 0.18452 0.00000
H260 H 0.02545 0.58837 0.21929 0.00000
H261 H 0.90336 0.60298 0.20021 0.00000
H262 H 0.93526 0.64267 0.23205 0.00000
H263 H 0.88383 0.56237 0.26272 0.00000
H264 H 0.92088 0.51576 0.23809 0.00000
C265 C 0.99483 0.59364 0.19932 0.00000
C266 C 0.93525 0.60344 0.21958 0.00000
C267 C 0.92110 0.42590 0.51001 0.00000
H268 H 0.91591 0.45229 0.43148 0.00000
H269 H 0.93680 0.50838 0.45549 0.00000
H270 H 0.84277 0.43064 0.47702 0.00000
H271 H 0.85573 0.49064 0.49967 0.00000
H272 H 0.90124 0.40913 0.53286 0.00000
H273 H 0.93807 0.39282 0.49510 0.00000
C274 C 0.90188 0.48506 0.44783 0.00000
C275 C 0.87411 0.45869 0.48442 0.00000
C276 C 0.36328 0.32857 0.83215 0.00000
H277 H 0.42864 0.22493 0.82350 0.00000
H278 H 0.37972 0.21716 0.85604 0.00000
H279 H 0.45341 0.31882 0.84663 0.00000
H280 H 0.41123 0.31069 0.88314 0.00000
H281 H 0.36337 0.37181 0.83572 0.00000
H282 H 0.36917 0.32048 0.80442 0.00000
C283 C 0.41922 0.23369 0.85069 0.00000
C284 C 0.41603 0.30108 0.85553 0.00000
C285 C 0.79294 0.57307 0.65506 0.00000
H286 H 0.68651 0.61488 0.68507 0.00000
H287 H 0.68440 0.61372 0.63922 0.00000
H288 H 0.78212 0.65414 0.68442 0.00000
H289 H 0.77993 0.66206 0.63869 0.00000
H290 H 0.83646 0.57549 0.65482 0.00000
H291 H 0.78123 0.54850 0.67733 0.00000
C292 C 0.69892 0.63629 0.66165 0.00000
C293 C 0.76677 0.63687 0.66031 0.00000
C294 C 0.56640 0.78715 0.34234 0.00000
H295 H 0.60907 0.67562 0.32245 0.00000
H296 H 0.62124 0.68910 0.36677 0.00000
H297 H 0.63831 0.77107 0.30495 0.00000
H298 H 0.65934 0.78493 0.34795 0.00000
H299 H 0.56459 0.82973 0.33638 0.00000
H300 H 0.53715 0.76684 0.32588 0.00000
C301 C 0.63548 0.69684 0.34034 0.00000
C302 C 0.62981 0.76338 0.33239 0.00000
C303 C 0.83154 0.13665 0.58699 0.00000
H304 H 0.73536 0.06218 0.57407 0.00000
H305 H 0.71625 0.11751 0.59944 0.00000
H306 H 0.82228 0.05059 0.60979 0.00000
H307 H 0.80205 0.10021 0.63971 0.00000
H308 H 0.87301 0.14076 0.59534 0.00000
H309 H 0.83164 0.12360 0.55980 0.00000
C310 C 0.73589 0.07862 0.60041 0.00000
C311 C 0.80057 0.08815 0.61235 0.00000
C312 C 0.25497 0.94439 0.12632 0.00000
H313 H 0.21288 0.82858 0.12484 0.00000
H314 H 0.24580 0.84414 0.08561 0.00000
H315 H 0.16487 0.92012 0.12506 0.00000
H316 H 0.18972 0.93527 0.08312 0.00000
H317 H 0.24670 0.98652 0.13123 0.00000
H318 H 0.26297 0.92531 0.15140 0.00000
C319 C 0.20835 0.84889 0.09984 0.00000
C320 C 0.19893 0.91504 0.10764 0.00000
C321 C 0.91700 0.29897 0.89687 0.00000
H322 H 0.86836 0.20892 0.94170 0.00000
H323 H 0.89494 0.18298 0.90276 0.00000
H324 H 0.82604 0.28855 0.90870 0.00000
H325 H 0.84411 0.26081 0.86805 0.00000
H326 H 0.91209 0.33829 0.88502 0.00000
H327 H 0.92830 0.30485 0.92412 0.00000
C328 C 0.86060 0.20371 0.91391 0.00000
C329 C 0.85644 0.26513 0.89524 0.00000
C330 C 0.20187 0.41898 0.14912 0.00000
H331 H 0.29643 0.37284 0.19102 0.00000
H332 H 0.31752 0.39356 0.14940 0.00000
H333 H 0.21133 0.32947 0.16524 0.00000
H334 H 0.23372 0.34143 0.12228 0.00000
H335 H 0.16092 0.41402 0.13992 0.00000
H336 H 0.20018 0.43381 0.17589 0.00000
C337 C 0.29749 0.36148 0.16356 0.00000
C338 C 0.23360 0.35723 0.14884 0.00000
C339 C 0.13892 0.82283 0.42341 0.00000
H340 H 0.08414 0.71244 0.42390 0.00000
H341 H 0.12121 0.72128 0.38536 0.00000
H342 H 0.04682 0.80864 0.41997 0.00000
H343 H 0.07602 0.81777 0.37848 0.00000
H344 H 0.13514 0.86594 0.42684 0.00000
H345 H 0.14302 0.80488 0.44924 0.00000
C346 C 0.08362 0.73122 0.39823 0.00000
C347 C 0.08123 0.79852 0.40382 0.00000
loop_
_geom_bond_atom_site_label_1
_geom_bond_atom_site_label_2
_geom_bond_distance
_geom_bond_site_symmetry_2
_ccdc_geom_bond_type
Cu0 O8 1.912 . S
Cu0 O14 2.020 . S
Cu0 O17 2.138 . S
Cu0 O18 1.968 . S
Cu0 O19 1.989 . S
Cu1 O11 1.919 . S
Cu1 O18 1.960 . S
Cu1 O20 1.905 . S
Cu2 O6 1.935 . S
Cu2 O10 1.938 . S
Cu2 O17 1.946 . S
Cu2 O18 2.012 . S
Cu3 O7 1.980 . S
Cu3 O9 1.981 . S
Cu3 O15 2.176 . S
Cu3 O17 1.925 . S
C4 O14 1.265 . A
C4 O15 1.255 . A
C5 O19 1.231 . A
C5 O20 1.248 . A
O6 C12 1.256 . A
O7 C12 1.238 . A
O8 C13 1.262 . A
O9 C13 1.255 . A
O10 C16 1.257 . A
O11 C16 1.255 . A
Cu21 O29 1.912 . S
Cu21 O35 2.020 . S
Cu21 O38 2.138 . S
Cu21 O39 1.968 . S
Cu21 O40 1.989 . S
Cu22 O32 1.919 . S
Cu22 O39 1.960 . S
Cu22 O41 1.905 . S
Cu23 O27 1.935 . S
Cu23 O31 1.938 . S
Cu23 O38 1.946 . S
Cu23 O39 2.012 . S
Cu24 O28 1.980 . S
Cu24 O30 1.981 . S
Cu24 O36 2.176 . S
Cu24 O38 1.925 . S
C25 O35 1.265 . A
C25 O36 1.255 . A
C26 O40 1.231 . A
C26 O41 1.248 . A
O27 C33 1.256 . A
O28 C33 1.238 . A
O29 C34 1.262 . A
O30 C34 1.255 . A
O31 C37 1.257 . A
O32 C37 1.255 . A
Cu42 O50 1.912 . S
Cu42 O56 2.020 . S
Cu42 O59 2.138 . S
Cu42 O60 1.968 . S
Cu42 O61 1.989 . S
Cu43 O53 1.919 . S
Cu43 O60 1.960 . S
Cu43 O62 1.905 . S
Cu44 O48 1.935 . S
Cu44 O52 1.938 . S
Cu44 O59 1.946 . S
Cu44 O60 2.012 . S
Cu45 O49 1.980 . S
Cu45 O51 1.981 . S
Cu45 O57 2.176 . S
Cu45 O59 1.925 . S
C46 O56 1.265 . A
C46 O57 1.255 . A
C47 O61 1.231 . A
C47 O62 1.248 . A
O48 C54 1.256 . A
O49 C54 1.238 . A
O50 C55 1.262 . A
O51 C55 1.255 . A
O52 C58 1.257 . A
O53 C58 1.255 . A
Cu63 O71 1.912 . S
Cu63 O77 2.020 . S
Cu63 O80 2.138 . S
Cu63 O81 1.968 . S
Cu63 O82 1.989 . S
Cu64 O74 1.919 . S
Cu64 O81 1.960 . S
Cu64 O83 1.905 . S
Cu65 O69 1.935 . S
Cu65 O73 1.938 . S
Cu65 O80 1.946 . S
Cu65 O81 2.012 . S
Cu66 O70 1.980 1_565 S
Cu66 O72 1.981 . S
Cu66 O78 2.176 . S
Cu66 O80 1.925 . S
C67 O77 1.265 . A
C67 O78 1.255 . A
C68 O82 1.231 . A
C68 O83 1.248 . A
O69 C75 1.256 1_565 A
O70 C75 1.238 . A
O71 C76 1.262 . A
O72 C76 1.255 . A
O73 C79 1.257 . A
O74 C79 1.255 . A
Cu84 O92 1.912 . S
Cu84 O98 2.020 . S
Cu84 O101 2.138 . S
Cu84 O102 1.968 . S
Cu84 O103 1.989 . S
Cu85 O95 1.919 . S
Cu85 O102 1.960 . S
Cu85 O104 1.905 . S
Cu86 O90 1.935 . S
Cu86 O94 1.938 . S
Cu86 O101 1.946 . S
Cu86 O102 2.012 . S
Cu87 O91 1.980 1_545 S
Cu87 O93 1.981 . S
Cu87 O99 2.176 . S
Cu87 O101 1.925 . S
C88 O98 1.265 . A
C88 O99 1.255 . A
C89 O103 1.231 . A
C89 O104 1.248 . A
O90 C96 1.256 1_545 A
O91 C96 1.238 . A
O92 C97 1.262 . A
O93 C97 1.255 . A
O94 C100 1.257 . A
O95 C100 1.255 . A
Cu105 O113 1.912 . S
Cu105 O119 2.020 . S
Cu105 O122 2.138 . S
Cu105 O123 1.968 . S
Cu105 O124 1.989 . S
Cu106 O116 1.919 . S
Cu106 O123 1.960 . S
Cu106 O125 1.905 . S
Cu107 O111 1.935 . S
Cu107 O115 1.938 . S
Cu107 O122 1.946 . S
Cu107 O123 2.012 . S
Cu108 O112 1.980 1_455 S
Cu108 O114 1.981 . S
Cu108 O120 2.176 . S
Cu108 O122 1.925 . S
C109 O119 1.265 . A
C109 O120 1.255 . A
C110 O124 1.231 . A
C110 O125 1.248 . A
O111 C117 1.256 1_455 A
O112 C117 1.238 . A
O113 C118 1.262 . A
O114 C118 1.255 . A
O115 C121 1.257 . A
O116 C121 1.255 . A
Cu126 O134 1.912 . S
Cu126 O140 2.020 . S
Cu126 O143 2.138 . S
Cu126 O144 1.968 . S
Cu126 O145 1.989 . S
Cu127 O137 1.919 . S
Cu127 O144 1.960 . S
Cu127 O146 1.905 . S
Cu128 O132 1.935 . S
Cu128 O136 1.938 . S
Cu128 O143 1.946 . S
Cu128 O144 2.012 . S
Cu129 O133 1.980 . S
Cu129 O135 1.981 . S
Cu129 O141 2.176 . S
Cu129 O143 1.925 . S
C130 O140 1.265 . A
C130 O141 1.255 . A
C131 O145 1.231 . A
C131 O146 1.248 . A
O132 C138 1.256 . A
O133 C138 1.238 . A
O134 C139 1.262 . A
O135 C139 1.255 . A
O136 C142 1.257 . A
O137 C142 1.255 . A
Cu147 O155 1.912 . S
Cu147 O161 2.020 . S
Cu147 O164 2.138 . S
Cu147 O165 1.968 . S
Cu147 O166 1.989 . S
Cu148 O158 1.919 . S
Cu148 O165 1.960 . S
Cu148 O167 1.905 . S
Cu149 O153 1.935 . S
Cu149 O157 1.938 . S
Cu149 O164 1.946 . S
Cu149 O165 2.012 . S
Cu150 O154 1.980 1_655 S
Cu150 O156 1.981 . S
Cu150 O162 2.176 . S
Cu150 O164 1.925 . S
C151 O161 1.265 . A
C151 O162 1.255 . A
C152 O166 1.231 . A
C152 O167 1.248 . A
O153 C159 1.256 1_655 A
O154 C159 1.238 . A
O155 C160 1.262 . A
O156 C160 1.255 . A
O157 C163 1.257 . A
O158 C163 1.255 . A
C168 H173 0.970 . S
C168 H174 0.971 . S
C168 C176 1.545 . S
H169 C175 0.970 . S
H170 C175 0.970 . S
H171 C176 0.970 . S
H172 C176 0.971 . S
C175 C176 1.511 . S
C177 H182 0.970 . S
C177 H183 0.971 . S
C177 C185 1.545 . S
H178 C184 0.970 . S
H179 C184 0.970 . S
H180 C185 0.970 . S
H181 C185 0.971 . S
C184 C185 1.511 . S
C186 H191 0.970 . S
C186 H192 0.971 . S
C186 C194 1.545 . S
H187 C193 0.970 . S
H188 C193 0.970 . S
H189 C194 0.970 . S
H190 C194 0.971 . S
C193 C194 1.511 . S
C195 H200 0.970 . S
C195 H201 0.971 . S
C195 C203 1.545 . S
H196 C202 0.970 1_554 S
H197 C202 0.970 . S
H198 C203 0.970 . S
H199 C203 0.971 . S
C202 C203 1.511 1_556 S
C204 H209 0.970 . S
C204 H210 0.971 . S
C204 C212 1.545 . S
H205 C211 0.970 . S
H206 C211 0.970 1_545 S
H207 C212 0.970 . S
H208 C212 0.971 . S
C211 C212 1.511 . S
C213 H218 0.970 . S
C213 H219 0.971 . S
C213 C221 1.545 1_455 S
H214 C220 0.970 . S
H215 C220 0.970 . S
H216 C221 0.970 . S
H217 C221 0.971 . S
C220 C221 1.511 1_455 S
C222 H227 0.970 . S
C222 H228 0.971 1_545 S
C222 C230 1.545 . S
H223 C229 0.970 . S
H224 C229 0.970 . S
H225 C230 0.970 . S
H226 C230 0.971 . S
C229 C230 1.511 . S
C231 H236 0.970 . S
C231 H237 0.971 . S
C231 C239 1.545 . S
H232 C238 0.970 . S
H233 C238 0.970 . S
H234 C239 0.970 . S
H235 C239 0.971 . S
C238 C239 1.511 . S
C240 H245 0.970 . S
C240 H246 0.971 . S
C240 C248 1.545 . S
H241 C247 0.970 . S
H242 C247 0.970 . S
H243 C248 0.970 . S
H244 C248 0.971 . S
C247 C248 1.511 1_556 S
C249 H254 0.970 . S
C249 H255 0.971 1_554 S
C249 C257 1.545 1_554 S
H250 C256 0.970 . S
H251 C256 0.970 . S
H252 C257 0.970 . S
H253 C257 0.971 . S
C256 C257 1.511 . S
C258 H263 0.970 . S
C258 H264 0.971 . S
C258 C266 1.545 . S
H259 C265 0.970 . S
H260 C265 0.970 1_455 S
H261 C266 0.970 . S
H262 C266 0.971 . S
C265 C266 1.511 . S
C267 H272 0.970 . S
C267 H273 0.971 . S
C267 C275 1.545 . S
H268 C274 0.970 . S
H269 C274 0.970 . S
H270 C275 0.970 . S
H271 C275 0.971 . S
C274 C275 1.511 . S
C276 H281 0.970 . S
C276 H282 0.971 . S
C276 C284 1.545 . S
H277 C283 0.970 . S
H278 C283 0.970 . S
H279 C284 0.970 . S
H280 C284 0.971 . S
C283 C284 1.511 . S
C285 H290 0.970 . S
C285 H291 0.971 . S
C285 C293 1.545 . S
H286 C292 0.970 . S
H287 C292 0.970 . S
H288 C293 0.970 . S
H289 C293 0.971 . S
C292 C293 1.511 . S
C294 H299 0.970 . S
C294 H300 0.971 . S
C294 C302 1.545 . S
H295 C301 0.970 . S
H296 C301 0.970 . S
H297 C302 0.970 . S
H298 C302 0.971 . S
C301 C302 1.511 . S
C303 H308 0.970 . S
C303 H309 0.971 . S
C303 C311 1.545 . S
H304 C310 0.970 . S
H305 C310 0.970 . S
H306 C311 0.970 . S
H307 C311 0.971 . S
C310 C311 1.511 . S
C312 H317 0.970 . S
C312 H318 0.971 . S
C312 C320 1.545 . S
H313 C319 0.970 . S
H314 C319 0.970 . S
H315 C320 0.970 . S
H316 C320 0.971 . S
C319 C320 1.511 . S
C321 H326 0.970 . S
C321 H327 0.971 . S
C321 C329 1.545 . S
H322 C328 0.970 . S
H323 C328 0.970 . S
H324 C329 0.970 . S
H325 C329 0.971 . S
C328 C329 1.511 . S
C330 H335 0.970 . S
C330 H336 0.971 . S
C330 C338 1.545 . S
H331 C337 0.970 . S
H332 C337 0.970 . S
H333 C338 0.970 . S
H334 C338 0.971 . S
C337 C338 1.511 . S
C339 H344 0.970 . S
C339 H345 0.971 . S
C339 C347 1.545 . S
H340 C346 0.970 . S
H341 C346 0.970 . S
H342 C347 0.970 . S
H343 C347 0.971 . S
C346 C347 1.511 . S
C168 C13 1.070 . S
C175 C34 0.958 . S
C177 C55 1.094 . S
C184 C139 0.968 . S
C186 C76 0.964 . S
C193 C160 1.106 . S
C195 C97 0.632 . S
C202 C118 1.060 . S
C204 C4 1.564 1_565 S
C211 C79 1.224 . S
C213 C121 1.033 . S
C220 C25 1.556 1_455 S
C222 C46 1.409 1_545 S
C229 C100 1.322 . S
C231 C58 1.069 . S
C238 C67 1.529 . S
C240 C88 1.531 . S
C247 C16 1.249 . S
C249 C142 0.977 . S
C256 C109 1.549 . S
C258 C163 1.174 . S
C265 C130 1.504 1_655 S
C267 C37 0.788 . S
C274 C151 1.586 . S
C276 C110 1.572 . S
C283 C12 1.551 . S
C285 C33 1.225 . S
C292 C68 1.653 . S
C294 C54 1.176 . S
C301 C152 1.658 . S
C303 C26 1.566 . S
C310 C75 1.543 . S
C312 C96 1.425 . S
C319 C131 1.496 . S
C321 C117 1.332 . S
C328 C5 1.627 . S
C330 C138 1.307 . S
C337 C89 1.634 . S
C339 C47 1.557 . S
C346 C159 1.567 . S
