data_MOF-5
_audit_creation_date              2022-04-04
_audit_creation_method            'Materials Studio'
_symmetry_space_group_name_H-M    'P1'
_symmetry_Int_Tables_number       1
_symmetry_cell_setting            triclinic
loop_
_symmetry_equiv_pos_as_xyz
  x,y,z
_cell_length_a                    25.8919
_cell_length_b                    25.8919
_cell_length_c                    25.8919
_cell_angle_alpha                 90.0000
_cell_angle_beta                  90.0000
_cell_angle_gamma                 90.0000
loop_
_atom_site_label
_atom_site_type_symbol
_atom_site_fract_x
_atom_site_fract_y
_atom_site_fract_z
_atom_site_U_iso_or_equiv
_atom_site_adp_type
_atom_site_occupancy
Zn1    Zn    0.20659   0.29341   0.20659   0.00920  Uani   1.00
Zn2    Zn    0.79341   0.70659   0.20659   0.00920  Uani   1.00
Zn3    Zn    0.29341   0.20659   0.20659   0.00920  Uani   1.00
Zn4    Zn    0.79341   0.29341   0.79341   0.00920  Uani   1.00
Zn5    Zn    0.29341   0.29341   0.29341   0.00920  Uani   1.00
Zn6    Zn    0.20659   0.70659   0.79341   0.00920  Uani   1.00
Zn7    Zn    0.20659   0.20659   0.29341   0.00920  Uani   1.00
Zn8    Zn    0.20659   0.79341   0.70659   0.00920  Uani   1.00
Zn9    Zn    0.79341   0.79341   0.29341   0.00920  Uani   1.00
Zn10   Zn    0.79341   0.20659   0.70659   0.00920  Uani   1.00
Zn11   Zn    0.29341   0.70659   0.70659   0.00920  Uani   1.00
Zn12   Zn    0.70659   0.20659   0.79341   0.00920  Uani   1.00
Zn13   Zn    0.70659   0.70659   0.29341   0.00920  Uani   1.00
Zn14   Zn    0.29341   0.79341   0.79341   0.00920  Uani   1.00
Zn15   Zn    0.70659   0.79341   0.20659   0.00920  Uani   1.00
Zn16   Zn    0.70659   0.29341   0.70659   0.00920  Uani   1.00
Zn17   Zn    0.29341   0.20659   0.79341   0.00920  Uani   1.00
Zn18   Zn    0.29341   0.70659   0.29341   0.00920  Uani   1.00
Zn19   Zn    0.70659   0.79341   0.79341   0.00920  Uani   1.00
Zn20   Zn    0.70659   0.29341   0.29341   0.00920  Uani   1.00
Zn21   Zn    0.20659   0.79341   0.29341   0.00920  Uani   1.00
Zn22   Zn    0.20659   0.29341   0.79341   0.00920  Uani   1.00
Zn23   Zn    0.29341   0.79341   0.20659   0.00920  Uani   1.00
Zn24   Zn    0.29341   0.29341   0.70659   0.00920  Uani   1.00
Zn25   Zn    0.70659   0.20659   0.20659   0.00920  Uani   1.00
Zn26   Zn    0.70659   0.70659   0.70659   0.00920  Uani   1.00
Zn27   Zn    0.20659   0.20659   0.70659   0.00920  Uani   1.00
Zn28   Zn    0.79341   0.20659   0.29341   0.00920  Uani   1.00
Zn29   Zn    0.79341   0.79341   0.70659   0.00920  Uani   1.00
Zn30   Zn    0.79341   0.29341   0.20659   0.00920  Uani   1.00
Zn31   Zn    0.20659   0.70659   0.20659   0.00920  Uani   1.00
Zn32   Zn    0.79341   0.70659   0.79341   0.00920  Uani   1.00
O33    O     0.25000   0.25000   0.25000   0.01070  Uani   1.00
O34    O     0.75000   0.75000   0.25000   0.01070  Uani   1.00
O35    O     0.75000   0.25000   0.75000   0.01070  Uani   1.00
O36    O     0.25000   0.75000   0.75000   0.01070  Uani   1.00
O37    O     0.25000   0.25000   0.75000   0.01070  Uani   1.00
O38    O     0.75000   0.75000   0.75000   0.01070  Uani   1.00
O39    O     0.75000   0.25000   0.25000   0.01070  Uani   1.00
O40    O     0.25000   0.75000   0.25000   0.01070  Uani   1.00
O41    O     0.21933   0.28067   0.13371   0.01980  Uani   1.00
C42    C     0.21724   0.28276   0.02683   0.02763  Uani   1.00
H43    H     0.19480   0.30520   0.04520   0.03600  Uiso   1.00
O44    O     0.21933   0.78067   0.63371   0.01980  Uani   1.00
C45    C     0.21724   0.78276   0.52683   0.02763  Uani   1.00
H46    H     0.19480   0.80520   0.54520   0.03600  Uiso   1.00
O47    O     0.78067   0.71933   0.13371   0.01980  Uani   1.00
C48    C     0.78276   0.71724   0.02683   0.02763  Uani   1.00
H49    H     0.80520   0.69480   0.04520   0.03600  Uiso   1.00
O50    O     0.78067   0.21933   0.63371   0.01980  Uani   1.00
C51    C     0.78276   0.21724   0.52683   0.02763  Uani   1.00
H52    H     0.80520   0.19480   0.54520   0.03600  Uiso   1.00
O53    O     0.28067   0.21933   0.13371   0.01980  Uani   1.00
C54    C     0.28276   0.21724   0.02683   0.02763  Uani   1.00
H55    H     0.30520   0.19480   0.04520   0.03600  Uiso   1.00
O56    O     0.78067   0.28067   0.86629   0.01980  Uani   1.00
C57    C     0.78276   0.28276   0.97317   0.02763  Uani   1.00
H58    H     0.80520   0.30520   0.95480   0.03600  Uiso   1.00
O59    O     0.78067   0.78067   0.36629   0.01980  Uani   1.00
C60    C     0.78276   0.78276   0.47317   0.02763  Uani   1.00
H61    H     0.80520   0.80520   0.45480   0.03600  Uiso   1.00
O62    O     0.28067   0.28067   0.36629   0.01980  Uani   1.00
C63    C     0.28276   0.28276   0.47317   0.02763  Uani   1.00
H64    H     0.30520   0.30520   0.45480   0.03600  Uiso   1.00
O65    O     0.21933   0.71933   0.86629   0.01980  Uani   1.00
C66    C     0.21724   0.71724   0.97317   0.02763  Uani   1.00
H67    H     0.19480   0.69480   0.95480   0.03600  Uiso   1.00
O68    O     0.21933   0.21933   0.36629   0.01980  Uani   1.00
C69    C     0.21724   0.21724   0.47317   0.02763  Uani   1.00
H70    H     0.19480   0.19480   0.45480   0.03600  Uiso   1.00
O71    O     0.13371   0.21933   0.28067   0.01980  Uani   1.00
C72    C     0.02683   0.21724   0.28276   0.02763  Uani   1.00
H73    H     0.04520   0.19480   0.30520   0.03600  Uiso   1.00
O74    O     0.63371   0.21933   0.78067   0.01980  Uani   1.00
C75    C     0.52683   0.21724   0.78276   0.02763  Uani   1.00
H76    H     0.54520   0.19480   0.80520   0.03600  Uiso   1.00
O77    O     0.13371   0.78067   0.71933   0.01980  Uani   1.00
C78    C     0.02683   0.78276   0.71724   0.02763  Uani   1.00
H79    H     0.04520   0.80520   0.69480   0.03600  Uiso   1.00
O80    O     0.13371   0.28067   0.21933   0.01980  Uani   1.00
C81    C     0.02683   0.28276   0.21724   0.02763  Uani   1.00
H82    H     0.04520   0.30520   0.19480   0.03600  Uiso   1.00
O83    O     0.63371   0.78067   0.21933   0.01980  Uani   1.00
C84    C     0.52683   0.78276   0.21724   0.02763  Uani   1.00
H85    H     0.54520   0.80520   0.19480   0.03600  Uiso   1.00
O86    O     0.86629   0.78067   0.28067   0.01980  Uani   1.00
C87    C     0.97317   0.78276   0.28276   0.02763  Uani   1.00
H88    H     0.95480   0.80520   0.30520   0.03600  Uiso   1.00
O89    O     0.36629   0.78067   0.78067   0.01980  Uani   1.00
C90    C     0.47317   0.78276   0.78276   0.02763  Uani   1.00
H91    H     0.45480   0.80520   0.80520   0.03600  Uiso   1.00
O92    O     0.36629   0.28067   0.28067   0.01980  Uani   1.00
C93    C     0.47317   0.28276   0.28276   0.02763  Uani   1.00
H94    H     0.45480   0.30520   0.30520   0.03600  Uiso   1.00
O95    O     0.86629   0.21933   0.71933   0.01980  Uani   1.00
C96    C     0.97317   0.21724   0.71724   0.02763  Uani   1.00
H97    H     0.95480   0.19480   0.69480   0.03600  Uiso   1.00
O98    O     0.36629   0.21933   0.21933   0.01980  Uani   1.00
C99    C     0.47317   0.21724   0.21724   0.02763  Uani   1.00
H100   H     0.45480   0.19480   0.19480   0.03600  Uiso   1.00
O101   O     0.28067   0.13371   0.21933   0.01980  Uani   1.00
C102   C     0.28276   0.02683   0.21724   0.02763  Uani   1.00
H103   H     0.30520   0.04520   0.19480   0.03600  Uiso   1.00
O104   O     0.28067   0.63371   0.71933   0.01980  Uani   1.00
C105   C     0.28276   0.52683   0.71724   0.02763  Uani   1.00
H106   H     0.30520   0.54520   0.69480   0.03600  Uiso   1.00
O107   O     0.71933   0.13371   0.78067   0.01980  Uani   1.00
C108   C     0.71724   0.02683   0.78276   0.02763  Uani   1.00
H109   H     0.69480   0.04520   0.80520   0.03600  Uiso   1.00
O110   O     0.71933   0.63371   0.28067   0.01980  Uani   1.00
C111   C     0.71724   0.52683   0.28276   0.02763  Uani   1.00
H112   H     0.69480   0.54520   0.30520   0.03600  Uiso   1.00
O113   O     0.21933   0.13371   0.28067   0.01980  Uani   1.00
C114   C     0.21724   0.02683   0.28276   0.02763  Uani   1.00
H115   H     0.19480   0.04520   0.30520   0.03600  Uiso   1.00
O116   O     0.28067   0.86629   0.78067   0.01980  Uani   1.00
C117   C     0.28276   0.97317   0.78276   0.02763  Uani   1.00
H118   H     0.30520   0.95480   0.80520   0.03600  Uiso   1.00
O119   O     0.28067   0.36629   0.28067   0.01980  Uani   1.00
C120   C     0.28276   0.47317   0.28276   0.02763  Uani   1.00
H121   H     0.30520   0.45480   0.30520   0.03600  Uiso   1.00
O122   O     0.71933   0.86629   0.21933   0.01980  Uani   1.00
C123   C     0.71724   0.97317   0.21724   0.02763  Uani   1.00
H124   H     0.69480   0.95480   0.19480   0.03600  Uiso   1.00
O125   O     0.71933   0.36629   0.71933   0.01980  Uani   1.00
C126   C     0.71724   0.47317   0.71724   0.02763  Uani   1.00
H127   H     0.69480   0.45480   0.69480   0.03600  Uiso   1.00
O128   O     0.21933   0.36629   0.21933   0.01980  Uani   1.00
C129   C     0.21724   0.47317   0.21724   0.02763  Uani   1.00
H130   H     0.19480   0.45480   0.19480   0.03600  Uiso   1.00
O131   O     0.28067   0.21933   0.86629   0.01980  Uani   1.00
C132   C     0.28276   0.21724   0.97317   0.02763  Uani   1.00
H133   H     0.30520   0.19480   0.95480   0.03600  Uiso   1.00
O134   O     0.28067   0.71933   0.36629   0.01980  Uani   1.00
C135   C     0.28276   0.71724   0.47317   0.02763  Uani   1.00
H136   H     0.30520   0.69480   0.45480   0.03600  Uiso   1.00
O137   O     0.71933   0.78067   0.86629   0.01980  Uani   1.00
C138   C     0.71724   0.78276   0.97317   0.02763  Uani   1.00
H139   H     0.69480   0.80520   0.95480   0.03600  Uiso   1.00
O140   O     0.71933   0.28067   0.36629   0.01980  Uani   1.00
C141   C     0.71724   0.28276   0.47317   0.02763  Uani   1.00
H142   H     0.69480   0.30520   0.45480   0.03600  Uiso   1.00
O143   O     0.21933   0.28067   0.86629   0.01980  Uani   1.00
C144   C     0.21724   0.28276   0.97317   0.02763  Uani   1.00
H145   H     0.19480   0.30520   0.95480   0.03600  Uiso   1.00
O146   O     0.28067   0.78067   0.13371   0.01980  Uani   1.00
C147   C     0.28276   0.78276   0.02683   0.02763  Uani   1.00
H148   H     0.30520   0.80520   0.04520   0.03600  Uiso   1.00
O149   O     0.28067   0.28067   0.63371   0.01980  Uani   1.00
C150   C     0.28276   0.28276   0.52683   0.02763  Uani   1.00
H151   H     0.30520   0.30520   0.54520   0.03600  Uiso   1.00
O152   O     0.71933   0.21933   0.13371   0.01980  Uani   1.00
C153   C     0.71724   0.21724   0.02683   0.02763  Uani   1.00
H154   H     0.69480   0.19480   0.04520   0.03600  Uiso   1.00
O155   O     0.71933   0.71933   0.63371   0.01980  Uani   1.00
C156   C     0.71724   0.71724   0.52683   0.02763  Uani   1.00
H157   H     0.69480   0.69480   0.54520   0.03600  Uiso   1.00
O158   O     0.21933   0.21933   0.63371   0.01980  Uani   1.00
C159   C     0.21724   0.21724   0.52683   0.02763  Uani   1.00
H160   H     0.19480   0.19480   0.54520   0.03600  Uiso   1.00
O161   O     0.21933   0.13371   0.71933   0.01980  Uani   1.00
C162   C     0.21724   0.02683   0.71724   0.02763  Uani   1.00
H163   H     0.19480   0.04520   0.69480   0.03600  Uiso   1.00
O164   O     0.21933   0.63371   0.21933   0.01980  Uani   1.00
C165   C     0.21724   0.52683   0.21724   0.02763  Uani   1.00
H166   H     0.19480   0.54520   0.19480   0.03600  Uiso   1.00
O167   O     0.78067   0.13371   0.28067   0.01980  Uani   1.00
C168   C     0.78276   0.02683   0.28276   0.02763  Uani   1.00
H169   H     0.80520   0.04520   0.30520   0.03600  Uiso   1.00
O170   O     0.78067   0.63371   0.78067   0.01980  Uani   1.00
C171   C     0.78276   0.52683   0.78276   0.02763  Uani   1.00
H172   H     0.80520   0.54520   0.80520   0.03600  Uiso   1.00
O173   O     0.28067   0.63371   0.28067   0.01980  Uani   1.00
C174   C     0.28276   0.52683   0.28276   0.02763  Uani   1.00
H175   H     0.30520   0.54520   0.30520   0.03600  Uiso   1.00
O176   O     0.78067   0.86629   0.71933   0.01980  Uani   1.00
C177   C     0.78276   0.97317   0.71724   0.02763  Uani   1.00
H178   H     0.80520   0.95480   0.69480   0.03600  Uiso   1.00
O179   O     0.78067   0.36629   0.21933   0.01980  Uani   1.00
C180   C     0.78276   0.47317   0.21724   0.02763  Uani   1.00
H181   H     0.80520   0.45480   0.19480   0.03600  Uiso   1.00
O182   O     0.28067   0.86629   0.21933   0.01980  Uani   1.00
C183   C     0.28276   0.97317   0.21724   0.02763  Uani   1.00
H184   H     0.30520   0.95480   0.19480   0.03600  Uiso   1.00
O185   O     0.21933   0.86629   0.28067   0.01980  Uani   1.00
C186   C     0.21724   0.97317   0.28276   0.02763  Uani   1.00
H187   H     0.19480   0.95480   0.30520   0.03600  Uiso   1.00
O188   O     0.21933   0.36629   0.78067   0.01980  Uani   1.00
C189   C     0.21724   0.47317   0.78276   0.02763  Uani   1.00
H190   H     0.19480   0.45480   0.80520   0.03600  Uiso   1.00
O191   O     0.13371   0.28067   0.78067   0.01980  Uani   1.00
C192   C     0.02683   0.28276   0.78276   0.02763  Uani   1.00
H193   H     0.04520   0.30520   0.80520   0.03600  Uiso   1.00
O194   O     0.63371   0.28067   0.28067   0.01980  Uani   1.00
C195   C     0.52683   0.28276   0.28276   0.02763  Uani   1.00
H196   H     0.54520   0.30520   0.30520   0.03600  Uiso   1.00
O197   O     0.13371   0.71933   0.21933   0.01980  Uani   1.00
C198   C     0.02683   0.71724   0.21724   0.02763  Uani   1.00
H199   H     0.04520   0.69480   0.19480   0.03600  Uiso   1.00
O200   O     0.63371   0.71933   0.71933   0.01980  Uani   1.00
C201   C     0.52683   0.71724   0.71724   0.02763  Uani   1.00
H202   H     0.54520   0.69480   0.69480   0.03600  Uiso   1.00
O203   O     0.63371   0.21933   0.21933   0.01980  Uani   1.00
C204   C     0.52683   0.21724   0.21724   0.02763  Uani   1.00
H205   H     0.54520   0.19480   0.19480   0.03600  Uiso   1.00
O206   O     0.86629   0.28067   0.21933   0.01980  Uani   1.00
C207   C     0.97317   0.28276   0.21724   0.02763  Uani   1.00
H208   H     0.95480   0.30520   0.19480   0.03600  Uiso   1.00
O209   O     0.36629   0.28067   0.71933   0.01980  Uani   1.00
C210   C     0.47317   0.28276   0.71724   0.02763  Uani   1.00
H211   H     0.45480   0.30520   0.69480   0.03600  Uiso   1.00
O212   O     0.86629   0.71933   0.78067   0.01980  Uani   1.00
C213   C     0.97317   0.71724   0.78276   0.02763  Uani   1.00
H214   H     0.95480   0.69480   0.80520   0.03600  Uiso   1.00
O215   O     0.86629   0.21933   0.28067   0.01980  Uani   1.00
C216   C     0.97317   0.21724   0.28276   0.02763  Uani   1.00
H217   H     0.95480   0.19480   0.30520   0.03600  Uiso   1.00
O218   O     0.36629   0.71933   0.28067   0.01980  Uani   1.00
C219   C     0.47317   0.71724   0.28276   0.02763  Uani   1.00
H220   H     0.45480   0.69480   0.30520   0.03600  Uiso   1.00
O221   O     0.78067   0.71933   0.86629   0.01980  Uani   1.00
C222   C     0.78276   0.71724   0.97317   0.02763  Uani   1.00
H223   H     0.80520   0.69480   0.95480   0.03600  Uiso   1.00
O224   O     0.78067   0.21933   0.36629   0.01980  Uani   1.00
C225   C     0.78276   0.21724   0.47317   0.02763  Uani   1.00
H226   H     0.80520   0.19480   0.45480   0.03600  Uiso   1.00
O227   O     0.21933   0.78067   0.36629   0.01980  Uani   1.00
C228   C     0.21724   0.78276   0.47317   0.02763  Uani   1.00
H229   H     0.19480   0.80520   0.45480   0.03600  Uiso   1.00
O230   O     0.21933   0.71933   0.13371   0.01980  Uani   1.00
C231   C     0.21724   0.71724   0.02683   0.02763  Uani   1.00
H232   H     0.19480   0.69480   0.04520   0.03600  Uiso   1.00
O233   O     0.78067   0.28067   0.13371   0.01980  Uani   1.00
C234   C     0.78276   0.28276   0.02683   0.02763  Uani   1.00
H235   H     0.80520   0.30520   0.04520   0.03600  Uiso   1.00
O236   O     0.78067   0.78067   0.63371   0.01980  Uani   1.00
C237   C     0.78276   0.78276   0.52683   0.02763  Uani   1.00
H238   H     0.80520   0.80520   0.54520   0.03600  Uiso   1.00
O239   O     0.86629   0.78067   0.71933   0.01980  Uani   1.00
C240   C     0.97317   0.78276   0.71724   0.02763  Uani   1.00
H241   H     0.95480   0.80520   0.69480   0.03600  Uiso   1.00
O242   O     0.36629   0.78067   0.21933   0.01980  Uani   1.00
C243   C     0.47317   0.78276   0.21724   0.02763  Uani   1.00
H244   H     0.45480   0.80520   0.19480   0.03600  Uiso   1.00
O245   O     0.36629   0.21933   0.78067   0.01980  Uani   1.00
C246   C     0.47317   0.21724   0.78276   0.02763  Uani   1.00
H247   H     0.45480   0.19480   0.80520   0.03600  Uiso   1.00
O248   O     0.13371   0.21933   0.71933   0.01980  Uani   1.00
C249   C     0.02683   0.21724   0.71724   0.02763  Uani   1.00
H250   H     0.04520   0.19480   0.69480   0.03600  Uiso   1.00
O251   O     0.13371   0.78067   0.28067   0.01980  Uani   1.00
C252   C     0.02683   0.78276   0.28276   0.02763  Uani   1.00
H253   H     0.04520   0.80520   0.30520   0.03600  Uiso   1.00
O254   O     0.63371   0.78067   0.78067   0.01980  Uani   1.00
C255   C     0.52683   0.78276   0.78276   0.02763  Uani   1.00
H256   H     0.54520   0.80520   0.80520   0.03600  Uiso   1.00
O257   O     0.71933   0.86629   0.78067   0.01980  Uani   1.00
C258   C     0.71724   0.97317   0.78276   0.02763  Uani   1.00
H259   H     0.69480   0.95480   0.80520   0.03600  Uiso   1.00
O260   O     0.71933   0.36629   0.28067   0.01980  Uani   1.00
C261   C     0.71724   0.47317   0.28276   0.02763  Uani   1.00
H262   H     0.69480   0.45480   0.30520   0.03600  Uiso   1.00
O263   O     0.28067   0.36629   0.71933   0.01980  Uani   1.00
C264   C     0.28276   0.47317   0.71724   0.02763  Uani   1.00
H265   H     0.30520   0.45480   0.69480   0.03600  Uiso   1.00
O266   O     0.71933   0.13371   0.21933   0.01980  Uani   1.00
C267   C     0.71724   0.02683   0.21724   0.02763  Uani   1.00
H268   H     0.69480   0.04520   0.19480   0.03600  Uiso   1.00
O269   O     0.71933   0.63371   0.71933   0.01980  Uani   1.00
C270   C     0.71724   0.52683   0.71724   0.02763  Uani   1.00
H271   H     0.69480   0.54520   0.69480   0.03600  Uiso   1.00
O272   O     0.28067   0.13371   0.78067   0.01980  Uani   1.00
C273   C     0.28276   0.02683   0.78276   0.02763  Uani   1.00
H274   H     0.30520   0.04520   0.80520   0.03600  Uiso   1.00
O275   O     0.71933   0.78067   0.13371   0.01980  Uani   1.00
C276   C     0.71724   0.78276   0.02683   0.02763  Uani   1.00
H277   H     0.69480   0.80520   0.04520   0.03600  Uiso   1.00
O278   O     0.71933   0.28067   0.63371   0.01980  Uani   1.00
C279   C     0.71724   0.28276   0.52683   0.02763  Uani   1.00
H280   H     0.69480   0.30520   0.54520   0.03600  Uiso   1.00
O281   O     0.28067   0.71933   0.63371   0.01980  Uani   1.00
C282   C     0.28276   0.71724   0.52683   0.02763  Uani   1.00
H283   H     0.30520   0.69480   0.54520   0.03600  Uiso   1.00
O284   O     0.71933   0.21933   0.86629   0.01980  Uani   1.00
C285   C     0.71724   0.21724   0.97317   0.02763  Uani   1.00
H286   H     0.69480   0.19480   0.95480   0.03600  Uiso   1.00
O287   O     0.71933   0.71933   0.36629   0.01980  Uani   1.00
C288   C     0.71724   0.71724   0.47317   0.02763  Uani   1.00
H289   H     0.69480   0.69480   0.45480   0.03600  Uiso   1.00
O290   O     0.28067   0.78067   0.86629   0.01980  Uani   1.00
C291   C     0.28276   0.78276   0.97317   0.02763  Uani   1.00
H292   H     0.30520   0.80520   0.95480   0.03600  Uiso   1.00
O293   O     0.78067   0.86629   0.28067   0.01980  Uani   1.00
C294   C     0.78276   0.97317   0.28276   0.02763  Uani   1.00
H295   H     0.80520   0.95480   0.30520   0.03600  Uiso   1.00
O296   O     0.78067   0.36629   0.78067   0.01980  Uani   1.00
C297   C     0.78276   0.47317   0.78276   0.02763  Uani   1.00
H298   H     0.80520   0.45480   0.80520   0.03600  Uiso   1.00
O299   O     0.21933   0.86629   0.71933   0.01980  Uani   1.00
C300   C     0.21724   0.97317   0.71724   0.02763  Uani   1.00
H301   H     0.19480   0.95480   0.69480   0.03600  Uiso   1.00
O302   O     0.21933   0.63371   0.78067   0.01980  Uani   1.00
C303   C     0.21724   0.52683   0.78276   0.02763  Uani   1.00
H304   H     0.19480   0.54520   0.80520   0.03600  Uiso   1.00
O305   O     0.78067   0.13371   0.71933   0.01980  Uani   1.00
C306   C     0.78276   0.02683   0.71724   0.02763  Uani   1.00
H307   H     0.80520   0.04520   0.69480   0.03600  Uiso   1.00
O308   O     0.78067   0.63371   0.21933   0.01980  Uani   1.00
C309   C     0.78276   0.52683   0.21724   0.02763  Uani   1.00
H310   H     0.80520   0.54520   0.19480   0.03600  Uiso   1.00
O311   O     0.86629   0.71933   0.21933   0.01980  Uani   1.00
C312   C     0.97317   0.71724   0.21724   0.02763  Uani   1.00
H313   H     0.95480   0.69480   0.19480   0.03600  Uiso   1.00
O314   O     0.36629   0.71933   0.71933   0.01980  Uani   1.00
C315   C     0.47317   0.71724   0.71724   0.02763  Uani   1.00
H316   H     0.45480   0.69480   0.69480   0.03600  Uiso   1.00
O317   O     0.86629   0.28067   0.78067   0.01980  Uani   1.00
C318   C     0.97317   0.28276   0.78276   0.02763  Uani   1.00
H319   H     0.95480   0.30520   0.80520   0.03600  Uiso   1.00
O320   O     0.13371   0.71933   0.78067   0.01980  Uani   1.00
C321   C     0.02683   0.71724   0.78276   0.02763  Uani   1.00
H322   H     0.04520   0.69480   0.80520   0.03600  Uiso   1.00
O323   O     0.63371   0.71933   0.28067   0.01980  Uani   1.00
C324   C     0.52683   0.71724   0.28276   0.02763  Uani   1.00
H325   H     0.54520   0.69480   0.30520   0.03600  Uiso   1.00
O326   O     0.63371   0.28067   0.71933   0.01980  Uani   1.00
C327   C     0.52683   0.28276   0.71724   0.02763  Uani   1.00
H328   H     0.54520   0.30520   0.69480   0.03600  Uiso   1.00
C329   C     0.25000   0.25000   0.11157   0.01553  Uani   1.00
C330   C     0.25000   0.25000   0.05359   0.01803  Uani   1.00
C331   C     0.25000   0.75000   0.61157   0.01553  Uani   1.00
C332   C     0.25000   0.75000   0.55359   0.01803  Uani   1.00
C333   C     0.75000   0.75000   0.11157   0.01553  Uani   1.00
C334   C     0.75000   0.75000   0.05359   0.01803  Uani   1.00
C335   C     0.75000   0.25000   0.61157   0.01553  Uani   1.00
C336   C     0.75000   0.25000   0.55359   0.01803  Uani   1.00
C337   C     0.75000   0.25000   0.88843   0.01553  Uani   1.00
C338   C     0.75000   0.25000   0.94641   0.01803  Uani   1.00
C339   C     0.75000   0.75000   0.38843   0.01553  Uani   1.00
C340   C     0.75000   0.75000   0.44641   0.01803  Uani   1.00
C341   C     0.25000   0.25000   0.38843   0.01553  Uani   1.00
C342   C     0.25000   0.25000   0.44641   0.01803  Uani   1.00
C343   C     0.25000   0.75000   0.88843   0.01553  Uani   1.00
C344   C     0.25000   0.75000   0.94641   0.01803  Uani   1.00
C345   C     0.11157   0.25000   0.25000   0.01553  Uani   1.00
C346   C     0.05359   0.25000   0.25000   0.01803  Uani   1.00
C347   C     0.61157   0.25000   0.75000   0.01553  Uani   1.00
C348   C     0.55359   0.25000   0.75000   0.01803  Uani   1.00
C349   C     0.11157   0.75000   0.75000   0.01553  Uani   1.00
C350   C     0.05359   0.75000   0.75000   0.01803  Uani   1.00
C351   C     0.61157   0.75000   0.25000   0.01553  Uani   1.00
C352   C     0.55359   0.75000   0.25000   0.01803  Uani   1.00
C353   C     0.88843   0.75000   0.25000   0.01553  Uani   1.00
C354   C     0.94641   0.75000   0.25000   0.01803  Uani   1.00
C355   C     0.38843   0.75000   0.75000   0.01553  Uani   1.00
C356   C     0.44641   0.75000   0.75000   0.01803  Uani   1.00
C357   C     0.38843   0.25000   0.25000   0.01553  Uani   1.00
C358   C     0.44641   0.25000   0.25000   0.01803  Uani   1.00
C359   C     0.88843   0.25000   0.75000   0.01553  Uani   1.00
C360   C     0.94641   0.25000   0.75000   0.01803  Uani   1.00
C361   C     0.25000   0.11157   0.25000   0.01553  Uani   1.00
C362   C     0.25000   0.05359   0.25000   0.01803  Uani   1.00
C363   C     0.25000   0.61157   0.75000   0.01553  Uani   1.00
C364   C     0.25000   0.55359   0.75000   0.01803  Uani   1.00
C365   C     0.75000   0.11157   0.75000   0.01553  Uani   1.00
C366   C     0.75000   0.05359   0.75000   0.01803  Uani   1.00
C367   C     0.75000   0.61157   0.25000   0.01553  Uani   1.00
C368   C     0.75000   0.55359   0.25000   0.01803  Uani   1.00
C369   C     0.25000   0.88843   0.75000   0.01553  Uani   1.00
C370   C     0.25000   0.94641   0.75000   0.01803  Uani   1.00
C371   C     0.25000   0.38843   0.25000   0.01553  Uani   1.00
C372   C     0.25000   0.44641   0.25000   0.01803  Uani   1.00
C373   C     0.75000   0.88843   0.25000   0.01553  Uani   1.00
C374   C     0.75000   0.94641   0.25000   0.01803  Uani   1.00
C375   C     0.75000   0.38843   0.75000   0.01553  Uani   1.00
C376   C     0.75000   0.44641   0.75000   0.01803  Uani   1.00
C377   C     0.25000   0.25000   0.88843   0.01553  Uani   1.00
C378   C     0.25000   0.25000   0.94641   0.01803  Uani   1.00
C379   C     0.25000   0.75000   0.38843   0.01553  Uani   1.00
C380   C     0.25000   0.75000   0.44641   0.01803  Uani   1.00
C381   C     0.75000   0.75000   0.88843   0.01553  Uani   1.00
C382   C     0.75000   0.75000   0.94641   0.01803  Uani   1.00
C383   C     0.75000   0.25000   0.38843   0.01553  Uani   1.00
C384   C     0.75000   0.25000   0.44641   0.01803  Uani   1.00
C385   C     0.25000   0.75000   0.11157   0.01553  Uani   1.00
C386   C     0.25000   0.75000   0.05359   0.01803  Uani   1.00
C387   C     0.25000   0.25000   0.61157   0.01553  Uani   1.00
C388   C     0.25000   0.25000   0.55359   0.01803  Uani   1.00
C389   C     0.75000   0.25000   0.11157   0.01553  Uani   1.00
C390   C     0.75000   0.25000   0.05359   0.01803  Uani   1.00
C391   C     0.75000   0.75000   0.61157   0.01553  Uani   1.00
C392   C     0.75000   0.75000   0.55359   0.01803  Uani   1.00
C393   C     0.25000   0.11157   0.75000   0.01553  Uani   1.00
C394   C     0.25000   0.05359   0.75000   0.01803  Uani   1.00
C395   C     0.25000   0.61157   0.25000   0.01553  Uani   1.00
C396   C     0.25000   0.55359   0.25000   0.01803  Uani   1.00
C397   C     0.75000   0.11157   0.25000   0.01553  Uani   1.00
C398   C     0.75000   0.05359   0.25000   0.01803  Uani   1.00
C399   C     0.75000   0.61157   0.75000   0.01553  Uani   1.00
C400   C     0.75000   0.55359   0.75000   0.01803  Uani   1.00
C401   C     0.75000   0.88843   0.75000   0.01553  Uani   1.00
C402   C     0.75000   0.94641   0.75000   0.01803  Uani   1.00
C403   C     0.75000   0.38843   0.25000   0.01553  Uani   1.00
C404   C     0.75000   0.44641   0.25000   0.01803  Uani   1.00
C405   C     0.25000   0.88843   0.25000   0.01553  Uani   1.00
C406   C     0.25000   0.94641   0.25000   0.01803  Uani   1.00
C407   C     0.25000   0.38843   0.75000   0.01553  Uani   1.00
C408   C     0.25000   0.44641   0.75000   0.01803  Uani   1.00
C409   C     0.11157   0.25000   0.75000   0.01553  Uani   1.00
C410   C     0.05359   0.25000   0.75000   0.01803  Uani   1.00
C411   C     0.61157   0.25000   0.25000   0.01553  Uani   1.00
C412   C     0.55359   0.25000   0.25000   0.01803  Uani   1.00
C413   C     0.11157   0.75000   0.25000   0.01553  Uani   1.00
C414   C     0.05359   0.75000   0.25000   0.01803  Uani   1.00
C415   C     0.61157   0.75000   0.75000   0.01553  Uani   1.00
C416   C     0.55359   0.75000   0.75000   0.01803  Uani   1.00
C417   C     0.88843   0.25000   0.25000   0.01553  Uani   1.00
C418   C     0.94641   0.25000   0.25000   0.01803  Uani   1.00
C419   C     0.38843   0.25000   0.75000   0.01553  Uani   1.00
C420   C     0.44641   0.25000   0.75000   0.01803  Uani   1.00
C421   C     0.88843   0.75000   0.75000   0.01553  Uani   1.00
C422   C     0.94641   0.75000   0.75000   0.01803  Uani   1.00
C423   C     0.38843   0.75000   0.25000   0.01553  Uani   1.00
C424   C     0.44641   0.75000   0.25000   0.01803  Uani   1.00
loop_
_atom_site_aniso_label
_atom_site_aniso_U_11
_atom_site_aniso_U_22
_atom_site_aniso_U_33
_atom_site_aniso_U_12
_atom_site_aniso_U_13
_atom_site_aniso_U_23
Zn1       0.00920   0.00920   0.00920   0.00003  -0.00003   0.00003
Zn2       0.00920   0.00920   0.00920   0.00003   0.00003  -0.00003
Zn3       0.00920   0.00920   0.00920   0.00003   0.00003  -0.00003
Zn4       0.00920   0.00920   0.00920  -0.00003  -0.00003  -0.00003
Zn5       0.00920   0.00920   0.00920  -0.00003  -0.00003  -0.00003
Zn6       0.00920   0.00920   0.00920  -0.00003   0.00003   0.00003
Zn7       0.00920   0.00920   0.00920  -0.00003   0.00003   0.00003
Zn8       0.00920   0.00920   0.00920   0.00003  -0.00003   0.00003
Zn9       0.00920   0.00920   0.00920  -0.00003  -0.00003  -0.00003
Zn10      0.00920   0.00920   0.00920   0.00003   0.00003  -0.00003
Zn11      0.00920   0.00920   0.00920   0.00003   0.00003  -0.00003
Zn12      0.00920   0.00920   0.00920  -0.00003   0.00003   0.00003
Zn13      0.00920   0.00920   0.00920  -0.00003   0.00003   0.00003
Zn14      0.00920   0.00920   0.00920  -0.00003  -0.00003  -0.00003
Zn15      0.00920   0.00920   0.00920   0.00003  -0.00003   0.00003
Zn16      0.00920   0.00920   0.00920   0.00003  -0.00003   0.00003
Zn17      0.00920   0.00920   0.00920   0.00003  -0.00003   0.00003
Zn18      0.00920   0.00920   0.00920   0.00003  -0.00003   0.00003
Zn19      0.00920   0.00920   0.00920   0.00003   0.00003  -0.00003
Zn20      0.00920   0.00920   0.00920   0.00003   0.00003  -0.00003
Zn21      0.00920   0.00920   0.00920   0.00003   0.00003  -0.00003
Zn22      0.00920   0.00920   0.00920   0.00003   0.00003  -0.00003
Zn23      0.00920   0.00920   0.00920  -0.00003   0.00003   0.00003
Zn24      0.00920   0.00920   0.00920  -0.00003   0.00003   0.00003
Zn25      0.00920   0.00920   0.00920  -0.00003  -0.00003  -0.00003
Zn26      0.00920   0.00920   0.00920  -0.00003  -0.00003  -0.00003
Zn27      0.00920   0.00920   0.00920  -0.00003  -0.00003  -0.00003
Zn28      0.00920   0.00920   0.00920   0.00003  -0.00003   0.00003
Zn29      0.00920   0.00920   0.00920  -0.00003   0.00003   0.00003
Zn30      0.00920   0.00920   0.00920  -0.00003   0.00003   0.00003
Zn31      0.00920   0.00920   0.00920  -0.00003  -0.00003  -0.00003
Zn32      0.00920   0.00920   0.00920   0.00003  -0.00003   0.00003
O33       0.01070   0.01070   0.01070   0.00000   0.00000   0.00000
O34       0.01070   0.01070   0.01070   0.00000   0.00000   0.00000
O35       0.01070   0.01070   0.01070   0.00000   0.00000   0.00000
O36       0.01070   0.01070   0.01070   0.00000   0.00000   0.00000
O37       0.01070   0.01070   0.01070   0.00000   0.00000   0.00000
O38       0.01070   0.01070   0.01070   0.00000   0.00000   0.00000
O39       0.01070   0.01070   0.01070   0.00000   0.00000   0.00000
O40       0.01070   0.01070   0.01070   0.00000   0.00000   0.00000
O41       0.02520   0.02520   0.00900   0.00810   0.00070  -0.00070
C42       0.03540   0.03540   0.01210   0.01890   0.00170  -0.00170
O44       0.02520   0.02520   0.00900   0.00810   0.00070  -0.00070
C45       0.03540   0.03540   0.01210   0.01890   0.00170  -0.00170
O47       0.02520   0.02520   0.00900   0.00810  -0.00070   0.00070
C48       0.03540   0.03540   0.01210   0.01890  -0.00170   0.00170
O50       0.02520   0.02520   0.00900   0.00810  -0.00070   0.00070
C51       0.03540   0.03540   0.01210   0.01890  -0.00170   0.00170
O53       0.02520   0.02520   0.00900   0.00810  -0.00070   0.00070
C54       0.03540   0.03540   0.01210   0.01890  -0.00170   0.00170
O56       0.02520   0.02520   0.00900  -0.00810   0.00070   0.00070
C57       0.03540   0.03540   0.01210  -0.01890   0.00170   0.00170
O59       0.02520   0.02520   0.00900  -0.00810   0.00070   0.00070
C60       0.03540   0.03540   0.01210  -0.01890   0.00170   0.00170
O62       0.02520   0.02520   0.00900  -0.00810   0.00070   0.00070
C63       0.03540   0.03540   0.01210  -0.01890   0.00170   0.00170
O65       0.02520   0.02520   0.00900  -0.00810  -0.00070  -0.00070
C66       0.03540   0.03540   0.01210  -0.01890  -0.00170  -0.00170
O68       0.02520   0.02520   0.00900  -0.00810  -0.00070  -0.00070
C69       0.03540   0.03540   0.01210  -0.01890  -0.00170  -0.00170
O71       0.00900   0.02520   0.02520   0.00070  -0.00070   0.00810
C72       0.01210   0.03540   0.03540   0.00170  -0.00170   0.01890
O74       0.00900   0.02520   0.02520   0.00070  -0.00070   0.00810
C75       0.01210   0.03540   0.03540   0.00170  -0.00170   0.01890
O77       0.00900   0.02520   0.02520  -0.00070   0.00070   0.00810
C78       0.01210   0.03540   0.03540  -0.00170   0.00170   0.01890
O80       0.00900   0.02520   0.02520  -0.00070   0.00070   0.00810
C81       0.01210   0.03540   0.03540  -0.00170   0.00170   0.01890
O83       0.00900   0.02520   0.02520  -0.00070   0.00070   0.00810
C84       0.01210   0.03540   0.03540  -0.00170   0.00170   0.01890
O86       0.00900   0.02520   0.02520   0.00070   0.00070  -0.00810
C87       0.01210   0.03540   0.03540   0.00170   0.00170  -0.01890
O89       0.00900   0.02520   0.02520   0.00070   0.00070  -0.00810
C90       0.01210   0.03540   0.03540   0.00170   0.00170  -0.01890
O92       0.00900   0.02520   0.02520   0.00070   0.00070  -0.00810
C93       0.01210   0.03540   0.03540   0.00170   0.00170  -0.01890
O95       0.00900   0.02520   0.02520  -0.00070  -0.00070  -0.00810
C96       0.01210   0.03540   0.03540  -0.00170  -0.00170  -0.01890
O98       0.00900   0.02520   0.02520  -0.00070  -0.00070  -0.00810
C99       0.01210   0.03540   0.03540  -0.00170  -0.00170  -0.01890
O101      0.02520   0.00900   0.02520  -0.00070   0.00810   0.00070
C102      0.03540   0.01210   0.03540  -0.00170   0.01890   0.00170
O104      0.02520   0.00900   0.02520  -0.00070   0.00810   0.00070
C105      0.03540   0.01210   0.03540  -0.00170   0.01890   0.00170
O107      0.02520   0.00900   0.02520   0.00070   0.00810  -0.00070
C108      0.03540   0.01210   0.03540   0.00170   0.01890  -0.00170
O110      0.02520   0.00900   0.02520   0.00070   0.00810  -0.00070
C111      0.03540   0.01210   0.03540   0.00170   0.01890  -0.00170
O113      0.02520   0.00900   0.02520   0.00070   0.00810  -0.00070
C114      0.03540   0.01210   0.03540   0.00170   0.01890  -0.00170
O116      0.02520   0.00900   0.02520   0.00070  -0.00810   0.00070
C117      0.03540   0.01210   0.03540   0.00170  -0.01890   0.00170
O119      0.02520   0.00900   0.02520   0.00070  -0.00810   0.00070
C120      0.03540   0.01210   0.03540   0.00170  -0.01890   0.00170
O122      0.02520   0.00900   0.02520  -0.00070  -0.00810  -0.00070
C123      0.03540   0.01210   0.03540  -0.00170  -0.01890  -0.00170
O125      0.02520   0.00900   0.02520  -0.00070  -0.00810  -0.00070
C126      0.03540   0.01210   0.03540  -0.00170  -0.01890  -0.00170
O128      0.02520   0.00900   0.02520  -0.00070  -0.00810  -0.00070
C129      0.03540   0.01210   0.03540  -0.00170  -0.01890  -0.00170
O131      0.02520   0.02520   0.00900   0.00810   0.00070  -0.00070
C132      0.03540   0.03540   0.01210   0.01890   0.00170  -0.00170
O134      0.02520   0.02520   0.00900   0.00810   0.00070  -0.00070
C135      0.03540   0.03540   0.01210   0.01890   0.00170  -0.00170
O137      0.02520   0.02520   0.00900   0.00810  -0.00070   0.00070
C138      0.03540   0.03540   0.01210   0.01890  -0.00170   0.00170
O140      0.02520   0.02520   0.00900   0.00810  -0.00070   0.00070
C141      0.03540   0.03540   0.01210   0.01890  -0.00170   0.00170
O143      0.02520   0.02520   0.00900   0.00810  -0.00070   0.00070
C144      0.03540   0.03540   0.01210   0.01890  -0.00170   0.00170
O146      0.02520   0.02520   0.00900  -0.00810  -0.00070  -0.00070
C147      0.03540   0.03540   0.01210  -0.01890  -0.00170  -0.00170
O149      0.02520   0.02520   0.00900  -0.00810  -0.00070  -0.00070
C150      0.03540   0.03540   0.01210  -0.01890  -0.00170  -0.00170
O152      0.02520   0.02520   0.00900  -0.00810   0.00070   0.00070
C153      0.03540   0.03540   0.01210  -0.01890   0.00170   0.00170
O155      0.02520   0.02520   0.00900  -0.00810   0.00070   0.00070
C156      0.03540   0.03540   0.01210  -0.01890   0.00170   0.00170
O158      0.02520   0.02520   0.00900  -0.00810   0.00070   0.00070
C159      0.03540   0.03540   0.01210  -0.01890   0.00170   0.00170
O161      0.02520   0.00900   0.02520   0.00070  -0.00810   0.00070
C162      0.03540   0.01210   0.03540   0.00170  -0.01890   0.00170
O164      0.02520   0.00900   0.02520   0.00070  -0.00810   0.00070
C165      0.03540   0.01210   0.03540   0.00170  -0.01890   0.00170
O167      0.02520   0.00900   0.02520  -0.00070  -0.00810  -0.00070
C168      0.03540   0.01210   0.03540  -0.00170  -0.01890  -0.00170
O170      0.02520   0.00900   0.02520  -0.00070  -0.00810  -0.00070
C171      0.03540   0.01210   0.03540  -0.00170  -0.01890  -0.00170
O173      0.02520   0.00900   0.02520  -0.00070  -0.00810  -0.00070
C174      0.03540   0.01210   0.03540  -0.00170  -0.01890  -0.00170
O176      0.02520   0.00900   0.02520   0.00070   0.00810  -0.00070
C177      0.03540   0.01210   0.03540   0.00170   0.01890  -0.00170
O179      0.02520   0.00900   0.02520   0.00070   0.00810  -0.00070
C180      0.03540   0.01210   0.03540   0.00170   0.01890  -0.00170
O182      0.02520   0.00900   0.02520   0.00070   0.00810  -0.00070
C183      0.03540   0.01210   0.03540   0.00170   0.01890  -0.00170
O185      0.02520   0.00900   0.02520  -0.00070   0.00810   0.00070
C186      0.03540   0.01210   0.03540  -0.00170   0.01890   0.00170
O188      0.02520   0.00900   0.02520  -0.00070   0.00810   0.00070
C189      0.03540   0.01210   0.03540  -0.00170   0.01890   0.00170
O191      0.00900   0.02520   0.02520  -0.00070  -0.00070  -0.00810
C192      0.01210   0.03540   0.03540  -0.00170  -0.00170  -0.01890
O194      0.00900   0.02520   0.02520  -0.00070  -0.00070  -0.00810
C195      0.01210   0.03540   0.03540  -0.00170  -0.00170  -0.01890
O197      0.00900   0.02520   0.02520   0.00070   0.00070  -0.00810
C198      0.01210   0.03540   0.03540   0.00170   0.00170  -0.01890
O200      0.00900   0.02520   0.02520   0.00070   0.00070  -0.00810
C201      0.01210   0.03540   0.03540   0.00170   0.00170  -0.01890
O203      0.00900   0.02520   0.02520   0.00070   0.00070  -0.00810
C204      0.01210   0.03540   0.03540   0.00170   0.00170  -0.01890
O206      0.00900   0.02520   0.02520   0.00070  -0.00070   0.00810
C207      0.01210   0.03540   0.03540   0.00170  -0.00170   0.01890
O209      0.00900   0.02520   0.02520   0.00070  -0.00070   0.00810
C210      0.01210   0.03540   0.03540   0.00170  -0.00170   0.01890
O212      0.00900   0.02520   0.02520  -0.00070   0.00070   0.00810
C213      0.01210   0.03540   0.03540  -0.00170   0.00170   0.01890
O215      0.00900   0.02520   0.02520  -0.00070   0.00070   0.00810
C216      0.01210   0.03540   0.03540  -0.00170   0.00170   0.01890
O218      0.00900   0.02520   0.02520  -0.00070   0.00070   0.00810
C219      0.01210   0.03540   0.03540  -0.00170   0.00170   0.01890
O221      0.02520   0.02520   0.00900   0.00810   0.00070  -0.00070
C222      0.03540   0.03540   0.01210   0.01890   0.00170  -0.00170
O224      0.02520   0.02520   0.00900   0.00810   0.00070  -0.00070
C225      0.03540   0.03540   0.01210   0.01890   0.00170  -0.00170
O227      0.02520   0.02520   0.00900   0.00810  -0.00070   0.00070
C228      0.03540   0.03540   0.01210   0.01890  -0.00170   0.00170
O230      0.02520   0.02520   0.00900  -0.00810   0.00070   0.00070
C231      0.03540   0.03540   0.01210  -0.01890   0.00170   0.00170
O233      0.02520   0.02520   0.00900  -0.00810  -0.00070  -0.00070
C234      0.03540   0.03540   0.01210  -0.01890  -0.00170  -0.00170
O236      0.02520   0.02520   0.00900  -0.00810  -0.00070  -0.00070
C237      0.03540   0.03540   0.01210  -0.01890  -0.00170  -0.00170
O239      0.00900   0.02520   0.02520   0.00070  -0.00070   0.00810
C240      0.01210   0.03540   0.03540   0.00170  -0.00170   0.01890
O242      0.00900   0.02520   0.02520   0.00070  -0.00070   0.00810
C243      0.01210   0.03540   0.03540   0.00170  -0.00170   0.01890
O245      0.00900   0.02520   0.02520  -0.00070   0.00070   0.00810
C246      0.01210   0.03540   0.03540  -0.00170   0.00170   0.01890
O248      0.00900   0.02520   0.02520   0.00070   0.00070  -0.00810
C249      0.01210   0.03540   0.03540   0.00170   0.00170  -0.01890
O251      0.00900   0.02520   0.02520  -0.00070  -0.00070  -0.00810
C252      0.01210   0.03540   0.03540  -0.00170  -0.00170  -0.01890
O254      0.00900   0.02520   0.02520  -0.00070  -0.00070  -0.00810
C255      0.01210   0.03540   0.03540  -0.00170  -0.00170  -0.01890
O257      0.02520   0.00900   0.02520  -0.00070   0.00810   0.00070
C258      0.03540   0.01210   0.03540  -0.00170   0.01890   0.00170
O260      0.02520   0.00900   0.02520  -0.00070   0.00810   0.00070
C261      0.03540   0.01210   0.03540  -0.00170   0.01890   0.00170
O263      0.02520   0.00900   0.02520   0.00070   0.00810  -0.00070
C264      0.03540   0.01210   0.03540   0.00170   0.01890  -0.00170
O266      0.02520   0.00900   0.02520   0.00070  -0.00810   0.00070
C267      0.03540   0.01210   0.03540   0.00170  -0.01890   0.00170
O269      0.02520   0.00900   0.02520   0.00070  -0.00810   0.00070
C270      0.03540   0.01210   0.03540   0.00170  -0.01890   0.00170
O272      0.02520   0.00900   0.02520  -0.00070  -0.00810  -0.00070
C273      0.03540   0.01210   0.03540  -0.00170  -0.01890  -0.00170
O275      0.02520   0.02520   0.00900   0.00810   0.00070  -0.00070
C276      0.03540   0.03540   0.01210   0.01890   0.00170  -0.00170
O278      0.02520   0.02520   0.00900   0.00810   0.00070  -0.00070
C279      0.03540   0.03540   0.01210   0.01890   0.00170  -0.00170
O281      0.02520   0.02520   0.00900   0.00810  -0.00070   0.00070
C282      0.03540   0.03540   0.01210   0.01890  -0.00170   0.00170
O284      0.02520   0.02520   0.00900  -0.00810  -0.00070  -0.00070
C285      0.03540   0.03540   0.01210  -0.01890  -0.00170  -0.00170
O287      0.02520   0.02520   0.00900  -0.00810  -0.00070  -0.00070
C288      0.03540   0.03540   0.01210  -0.01890  -0.00170  -0.00170
O290      0.02520   0.02520   0.00900  -0.00810   0.00070   0.00070
C291      0.03540   0.03540   0.01210  -0.01890   0.00170   0.00170
O293      0.02520   0.00900   0.02520   0.00070  -0.00810   0.00070
C294      0.03540   0.01210   0.03540   0.00170  -0.01890   0.00170
O296      0.02520   0.00900   0.02520   0.00070  -0.00810   0.00070
C297      0.03540   0.01210   0.03540   0.00170  -0.01890   0.00170
O299      0.02520   0.00900   0.02520  -0.00070  -0.00810  -0.00070
C300      0.03540   0.01210   0.03540  -0.00170  -0.01890  -0.00170
O302      0.02520   0.00900   0.02520   0.00070   0.00810  -0.00070
C303      0.03540   0.01210   0.03540   0.00170   0.01890  -0.00170
O305      0.02520   0.00900   0.02520  -0.00070   0.00810   0.00070
C306      0.03540   0.01210   0.03540  -0.00170   0.01890   0.00170
O308      0.02520   0.00900   0.02520  -0.00070   0.00810   0.00070
C309      0.03540   0.01210   0.03540  -0.00170   0.01890   0.00170
O311      0.00900   0.02520   0.02520  -0.00070  -0.00070  -0.00810
C312      0.01210   0.03540   0.03540  -0.00170  -0.00170  -0.01890
O314      0.00900   0.02520   0.02520  -0.00070  -0.00070  -0.00810
C315      0.01210   0.03540   0.03540  -0.00170  -0.00170  -0.01890
O317      0.00900   0.02520   0.02520   0.00070   0.00070  -0.00810
C318      0.01210   0.03540   0.03540   0.00170   0.00170  -0.01890
O320      0.00900   0.02520   0.02520   0.00070  -0.00070   0.00810
C321      0.01210   0.03540   0.03540   0.00170  -0.00170   0.01890
O323      0.00900   0.02520   0.02520   0.00070  -0.00070   0.00810
C324      0.01210   0.03540   0.03540   0.00170  -0.00170   0.01890
O326      0.00900   0.02520   0.02520  -0.00070   0.00070   0.00810
C327      0.01210   0.03540   0.03540  -0.00170   0.00170   0.01890
C329      0.01850   0.01850   0.00960   0.00060   0.00000   0.00000
C330      0.02270   0.02270   0.00870   0.00200   0.00000   0.00000
C331      0.01850   0.01850   0.00960   0.00060   0.00000   0.00000
C332      0.02270   0.02270   0.00870   0.00200   0.00000   0.00000
C333      0.01850   0.01850   0.00960   0.00060   0.00000   0.00000
C334      0.02270   0.02270   0.00870   0.00200   0.00000   0.00000
C335      0.01850   0.01850   0.00960   0.00060   0.00000   0.00000
C336      0.02270   0.02270   0.00870   0.00200   0.00000   0.00000
C337      0.01850   0.01850   0.00960  -0.00060   0.00000   0.00000
C338      0.02270   0.02270   0.00870  -0.00200   0.00000   0.00000
C339      0.01850   0.01850   0.00960  -0.00060   0.00000   0.00000
C340      0.02270   0.02270   0.00870  -0.00200   0.00000   0.00000
C341      0.01850   0.01850   0.00960  -0.00060   0.00000   0.00000
C342      0.02270   0.02270   0.00870  -0.00200   0.00000   0.00000
C343      0.01850   0.01850   0.00960  -0.00060   0.00000   0.00000
C344      0.02270   0.02270   0.00870  -0.00200   0.00000   0.00000
C345      0.00960   0.01850   0.01850   0.00000   0.00000   0.00060
C346      0.00870   0.02270   0.02270   0.00000   0.00000   0.00200
C347      0.00960   0.01850   0.01850   0.00000   0.00000   0.00060
C348      0.00870   0.02270   0.02270   0.00000   0.00000   0.00200
C349      0.00960   0.01850   0.01850   0.00000   0.00000   0.00060
C350      0.00870   0.02270   0.02270   0.00000   0.00000   0.00200
C351      0.00960   0.01850   0.01850   0.00000   0.00000   0.00060
C352      0.00870   0.02270   0.02270   0.00000   0.00000   0.00200
C353      0.00960   0.01850   0.01850   0.00000   0.00000  -0.00060
C354      0.00870   0.02270   0.02270   0.00000   0.00000  -0.00200
C355      0.00960   0.01850   0.01850   0.00000   0.00000  -0.00060
C356      0.00870   0.02270   0.02270   0.00000   0.00000  -0.00200
C357      0.00960   0.01850   0.01850   0.00000   0.00000  -0.00060
C358      0.00870   0.02270   0.02270   0.00000   0.00000  -0.00200
C359      0.00960   0.01850   0.01850   0.00000   0.00000  -0.00060
C360      0.00870   0.02270   0.02270   0.00000   0.00000  -0.00200
C361      0.01850   0.00960   0.01850   0.00000   0.00060   0.00000
C362      0.02270   0.00870   0.02270   0.00000   0.00200   0.00000
C363      0.01850   0.00960   0.01850   0.00000   0.00060   0.00000
C364      0.02270   0.00870   0.02270   0.00000   0.00200   0.00000
C365      0.01850   0.00960   0.01850   0.00000   0.00060   0.00000
C366      0.02270   0.00870   0.02270   0.00000   0.00200   0.00000
C367      0.01850   0.00960   0.01850   0.00000   0.00060   0.00000
C368      0.02270   0.00870   0.02270   0.00000   0.00200   0.00000
C369      0.01850   0.00960   0.01850   0.00000  -0.00060   0.00000
C370      0.02270   0.00870   0.02270   0.00000  -0.00200   0.00000
C371      0.01850   0.00960   0.01850   0.00000  -0.00060   0.00000
C372      0.02270   0.00870   0.02270   0.00000  -0.00200   0.00000
C373      0.01850   0.00960   0.01850   0.00000  -0.00060   0.00000
C374      0.02270   0.00870   0.02270   0.00000  -0.00200   0.00000
C375      0.01850   0.00960   0.01850   0.00000  -0.00060   0.00000
C376      0.02270   0.00870   0.02270   0.00000  -0.00200   0.00000
C377      0.01850   0.01850   0.00960   0.00060   0.00000   0.00000
C378      0.02270   0.02270   0.00870   0.00200   0.00000   0.00000
C379      0.01850   0.01850   0.00960   0.00060   0.00000   0.00000
C380      0.02270   0.02270   0.00870   0.00200   0.00000   0.00000
C381      0.01850   0.01850   0.00960   0.00060   0.00000   0.00000
C382      0.02270   0.02270   0.00870   0.00200   0.00000   0.00000
C383      0.01850   0.01850   0.00960   0.00060   0.00000   0.00000
C384      0.02270   0.02270   0.00870   0.00200   0.00000   0.00000
C385      0.01850   0.01850   0.00960  -0.00060   0.00000   0.00000
C386      0.02270   0.02270   0.00870  -0.00200   0.00000   0.00000
C387      0.01850   0.01850   0.00960  -0.00060   0.00000   0.00000
C388      0.02270   0.02270   0.00870  -0.00200   0.00000   0.00000
C389      0.01850   0.01850   0.00960  -0.00060   0.00000   0.00000
C390      0.02270   0.02270   0.00870  -0.00200   0.00000   0.00000
C391      0.01850   0.01850   0.00960  -0.00060   0.00000   0.00000
C392      0.02270   0.02270   0.00870  -0.00200   0.00000   0.00000
C393      0.01850   0.00960   0.01850   0.00000  -0.00060   0.00000
C394      0.02270   0.00870   0.02270   0.00000  -0.00200   0.00000
C395      0.01850   0.00960   0.01850   0.00000  -0.00060   0.00000
C396      0.02270   0.00870   0.02270   0.00000  -0.00200   0.00000
C397      0.01850   0.00960   0.01850   0.00000  -0.00060   0.00000
C398      0.02270   0.00870   0.02270   0.00000  -0.00200   0.00000
C399      0.01850   0.00960   0.01850   0.00000  -0.00060   0.00000
C400      0.02270   0.00870   0.02270   0.00000  -0.00200   0.00000
C401      0.01850   0.00960   0.01850   0.00000   0.00060   0.00000
C402      0.02270   0.00870   0.02270   0.00000   0.00200   0.00000
C403      0.01850   0.00960   0.01850   0.00000   0.00060   0.00000
C404      0.02270   0.00870   0.02270   0.00000   0.00200   0.00000
C405      0.01850   0.00960   0.01850   0.00000   0.00060   0.00000
C406      0.02270   0.00870   0.02270   0.00000   0.00200   0.00000
C407      0.01850   0.00960   0.01850   0.00000   0.00060   0.00000
C408      0.02270   0.00870   0.02270   0.00000   0.00200   0.00000
C409      0.00960   0.01850   0.01850   0.00000   0.00000  -0.00060
C410      0.00870   0.02270   0.02270   0.00000   0.00000  -0.00200
C411      0.00960   0.01850   0.01850   0.00000   0.00000  -0.00060
C412      0.00870   0.02270   0.02270   0.00000   0.00000  -0.00200
C413      0.00960   0.01850   0.01850   0.00000   0.00000  -0.00060
C414      0.00870   0.02270   0.02270   0.00000   0.00000  -0.00200
C415      0.00960   0.01850   0.01850   0.00000   0.00000  -0.00060
C416      0.00870   0.02270   0.02270   0.00000   0.00000  -0.00200
C417      0.00960   0.01850   0.01850   0.00000   0.00000   0.00060
C418      0.00870   0.02270   0.02270   0.00000   0.00000   0.00200
C419      0.00960   0.01850   0.01850   0.00000   0.00000   0.00060
C420      0.00870   0.02270   0.02270   0.00000   0.00000   0.00200
C421      0.00960   0.01850   0.01850   0.00000   0.00000   0.00060
C422      0.00870   0.02270   0.02270   0.00000   0.00000   0.00200
C423      0.00960   0.01850   0.01850   0.00000   0.00000   0.00060
C424      0.00870   0.02270   0.02270   0.00000   0.00000   0.00200
loop_
_geom_bond_atom_site_label_1
_geom_bond_atom_site_label_2
_geom_bond_distance
_geom_bond_site_symmetry_2
_ccdc_geom_bond_type
Zn1    O41     1.944   .     S
Zn1    O80     1.944   .     S
Zn1    O128    1.944   .     S
Zn1    O33     1.947   .     S
Zn2    O47     1.944   .     S
Zn2    O311    1.944   .     S
Zn2    O308    1.944   .     S
Zn2    O34     1.947   .     S
Zn3    O101    1.944   .     S
Zn3    O53     1.944   .     S
Zn3    O98     1.944   .     S
Zn3    O33     1.947   .     S
Zn4    O56     1.944   .     S
Zn4    O317    1.944   .     S
Zn4    O296    1.944   .     S
Zn4    O35     1.947   .     S
Zn5    O119    1.944   .     S
Zn5    O62     1.944   .     S
Zn5    O92     1.944   .     S
Zn5    O33     1.947   .     S
Zn6    O65     1.944   .     S
Zn6    O320    1.944   .     S
Zn6    O302    1.944   .     S
Zn6    O36     1.947   .     S
Zn7    O71     1.944   .     S
Zn7    O113    1.944   .     S
Zn7    O68     1.944   .     S
Zn7    O33     1.947   .     S
Zn8    O77     1.944   .     S
Zn8    O299    1.944   .     S
Zn8    O44     1.944   .     S
Zn8    O36     1.947   .     S
Zn9    O86     1.944   .     S
Zn9    O293    1.944   .     S
Zn9    O59     1.944   .     S
Zn9    O34     1.947   .     S
Zn10   O95     1.944   .     S
Zn10   O305    1.944   .     S
Zn10   O50     1.944   .     S
Zn10   O35     1.947   .     S
Zn11   O104    1.944   .     S
Zn11   O281    1.944   .     S
Zn11   O314    1.944   .     S
Zn11   O36     1.947   .     S
Zn12   O107    1.944   .     S
Zn12   O284    1.944   .     S
Zn12   O74     1.944   .     S
Zn12   O35     1.947   .     S
Zn13   O110    1.944   .     S
Zn13   O287    1.944   .     S
Zn13   O323    1.944   .     S
Zn13   O34     1.947   .     S
Zn14   O116    1.944   .     S
Zn14   O290    1.944   .     S
Zn14   O89     1.944   .     S
Zn14   O36     1.947   .     S
Zn15   O122    1.944   .     S
Zn15   O275    1.944   .     S
Zn15   O83     1.944   .     S
Zn15   O34     1.947   .     S
Zn16   O125    1.944   .     S
Zn16   O278    1.944   .     S
Zn16   O326    1.944   .     S
Zn16   O35     1.947   .     S
Zn17   O131    1.944   .     S
Zn17   O272    1.944   .     S
Zn17   O245    1.944   .     S
Zn17   O37     1.947   .     S
Zn18   O134    1.944   .     S
Zn18   O173    1.944   .     S
Zn18   O218    1.944   .     S
Zn18   O40     1.947   .     S
Zn19   O137    1.944   .     S
Zn19   O257    1.944   .     S
Zn19   O254    1.944   .     S
Zn19   O38     1.947   .     S
Zn20   O140    1.944   .     S
Zn20   O260    1.944   .     S
Zn20   O194    1.944   .     S
Zn20   O39     1.947   .     S
Zn21   O185    1.944   .     S
Zn21   O251    1.944   .     S
Zn21   O227    1.944   .     S
Zn21   O40     1.947   .     S
Zn22   O191    1.944   .     S
Zn22   O143    1.944   .     S
Zn22   O188    1.944   .     S
Zn22   O37     1.947   .     S
Zn23   O146    1.944   .     S
Zn23   O182    1.944   .     S
Zn23   O242    1.944   .     S
Zn23   O40     1.947   .     S
Zn24   O149    1.944   .     S
Zn24   O263    1.944   .     S
Zn24   O209    1.944   .     S
Zn24   O37     1.947   .     S
Zn25   O152    1.944   .     S
Zn25   O266    1.944   .     S
Zn25   O203    1.944   .     S
Zn25   O39     1.947   .     S
Zn26   O155    1.944   .     S
Zn26   O269    1.944   .     S
Zn26   O200    1.944   .     S
Zn26   O38     1.947   .     S
Zn27   O161    1.944   .     S
Zn27   O248    1.944   .     S
Zn27   O158    1.944   .     S
Zn27   O37     1.947   .     S
Zn28   O167    1.944   .     S
Zn28   O215    1.944   .     S
Zn28   O224    1.944   .     S
Zn28   O39     1.947   .     S
Zn29   O176    1.944   .     S
Zn29   O239    1.944   .     S
Zn29   O236    1.944   .     S
Zn29   O38     1.947   .     S
Zn30   O206    1.944   .     S
Zn30   O233    1.944   .     S
Zn30   O179    1.944   .     S
Zn30   O39     1.947   .     S
Zn31   O197    1.944   .     S
Zn31   O230    1.944   .     S
Zn31   O164    1.944   .     S
Zn31   O40     1.947   .     S
Zn32   O212    1.944   .     S
Zn32   O221    1.944   .     S
Zn32   O170    1.944   .     S
Zn32   O38     1.947   .     S
O41    C329    1.261   .     S
C42    C330    1.385   .     S
C42    H43     0.949   .     S
C42    C144    1.389   1_554 S
O44    C331    1.261   .     S
C45    C332    1.385   .     S
C45    H46     0.949   .     S
C45    C228    1.389   .     S
O47    C333    1.261   .     S
C48    C334    1.385   .     S
C48    H49     0.949   .     S
C48    C222    1.389   1_554 S
O50    C335    1.261   .     S
C51    C336    1.385   .     S
C51    H52     0.949   .     S
C51    C225    1.389   .     S
O53    C329    1.261   .     S
C54    C330    1.385   .     S
C54    H55     0.949   .     S
C54    C132    1.389   1_554 S
O56    C337    1.261   .     S
C57    C338    1.385   .     S
C57    H58     0.949   .     S
C57    C234    1.389   1_556 S
O59    C339    1.261   .     S
C60    C340    1.385   .     S
C60    H61     0.949   .     S
C60    C237    1.389   .     S
O62    C341    1.261   .     S
C63    C342    1.385   .     S
C63    H64     0.949   .     S
C63    C150    1.389   .     S
O65    C343    1.261   .     S
C66    C344    1.385   .     S
C66    H67     0.949   .     S
C66    C231    1.389   1_556 S
O68    C341    1.261   .     S
C69    C342    1.385   .     S
C69    H70     0.949   .     S
C69    C159    1.389   .     S
O71    C345    1.261   .     S
C72    C346    1.385   .     S
C72    H73     0.949   .     S
C72    C216    1.389   1_455 S
O74    C347    1.261   .     S
C75    C348    1.385   .     S
C75    H76     0.949   .     S
C75    C246    1.389   .     S
O77    C349    1.261   .     S
C78    C350    1.385   .     S
C78    H79     0.949   .     S
C78    C240    1.389   1_455 S
O80    C345    1.261   .     S
C81    C346    1.385   .     S
C81    H82     0.949   .     S
C81    C207    1.389   1_455 S
O83    C351    1.261   .     S
C84    C352    1.385   .     S
C84    H85     0.949   .     S
C84    C243    1.389   .     S
O86    C353    1.261   .     S
C87    C354    1.385   .     S
C87    H88     0.949   .     S
C87    C252    1.389   1_655 S
O89    C355    1.261   .     S
C90    C356    1.385   .     S
C90    H91     0.949   .     S
C90    C255    1.389   .     S
O92    C357    1.261   .     S
C93    C358    1.385   .     S
C93    H94     0.949   .     S
C93    C195    1.389   .     S
O95    C359    1.261   .     S
C96    C360    1.385   .     S
C96    H97     0.949   .     S
C96    C249    1.389   1_655 S
O98    C357    1.261   .     S
C99    C358    1.385   .     S
C99    H100    0.949   .     S
C99    C204    1.389   .     S
O101   C361    1.261   .     S
C102   C362    1.385   .     S
C102   H103    0.949   .     S
C102   C183    1.389   1_545 S
O104   C363    1.261   .     S
C105   C364    1.385   .     S
C105   H106    0.949   .     S
C105   C264    1.389   .     S
O107   C365    1.261   .     S
C108   C366    1.385   .     S
C108   H109    0.949   .     S
C108   C258    1.389   1_545 S
O110   C367    1.261   .     S
C111   C368    1.385   .     S
C111   H112    0.949   .     S
C111   C261    1.389   .     S
O113   C361    1.261   .     S
C114   C362    1.385   .     S
C114   H115    0.949   .     S
C114   C186    1.389   1_545 S
O116   C369    1.261   .     S
C117   C370    1.385   .     S
C117   H118    0.949   .     S
C117   C273    1.389   1_565 S
O119   C371    1.261   .     S
C120   C372    1.385   .     S
C120   H121    0.949   .     S
C120   C174    1.389   .     S
O122   C373    1.261   .     S
C123   C374    1.385   .     S
C123   H124    0.949   .     S
C123   C267    1.389   1_565 S
O125   C375    1.261   .     S
C126   C376    1.385   .     S
C126   H127    0.949   .     S
C126   C270    1.389   .     S
O128   C371    1.261   .     S
C129   C372    1.385   .     S
C129   H130    0.949   .     S
C129   C165    1.389   .     S
O131   C377    1.261   .     S
C132   C378    1.385   .     S
C132   H133    0.949   .     S
C132   C54     1.389   1_556 S
O134   C379    1.261   .     S
C135   C380    1.385   .     S
C135   H136    0.949   .     S
C135   C282    1.389   .     S
O137   C381    1.261   .     S
C138   C382    1.385   .     S
C138   H139    0.949   .     S
C138   C276    1.389   1_556 S
O140   C383    1.261   .     S
C141   C384    1.385   .     S
C141   H142    0.949   .     S
C141   C279    1.389   .     S
O143   C377    1.261   .     S
C144   C378    1.385   .     S
C144   H145    0.949   .     S
C144   C42     1.389   1_556 S
O146   C385    1.261   .     S
C147   C386    1.385   .     S
C147   H148    0.949   .     S
C147   C291    1.389   1_554 S
O149   C387    1.261   .     S
C150   C388    1.385   .     S
C150   H151    0.949   .     S
O152   C389    1.261   .     S
C153   C390    1.385   .     S
C153   H154    0.949   .     S
C153   C285    1.389   1_554 S
O155   C391    1.261   .     S
C156   C392    1.385   .     S
C156   H157    0.949   .     S
C156   C288    1.389   .     S
O158   C387    1.261   .     S
C159   C388    1.385   .     S
C159   H160    0.949   .     S
O161   C393    1.261   .     S
C162   C394    1.385   .     S
C162   H163    0.949   .     S
C162   C300    1.389   1_545 S
O164   C395    1.261   .     S
C165   C396    1.385   .     S
C165   H166    0.949   .     S
O167   C397    1.261   .     S
C168   C398    1.385   .     S
C168   H169    0.949   .     S
C168   C294    1.389   1_545 S
O170   C399    1.261   .     S
C171   C400    1.385   .     S
C171   H172    0.949   .     S
C171   C297    1.389   .     S
O173   C395    1.261   .     S
C174   C396    1.385   .     S
C174   H175    0.949   .     S
O176   C401    1.261   .     S
C177   C402    1.385   .     S
C177   H178    0.949   .     S
C177   C306    1.389   1_565 S
O179   C403    1.261   .     S
C180   C404    1.385   .     S
C180   H181    0.949   .     S
C180   C309    1.389   .     S
O182   C405    1.261   .     S
C183   C406    1.385   .     S
C183   H184    0.949   .     S
C183   C102    1.389   1_565 S
O185   C405    1.261   .     S
C186   C406    1.385   .     S
C186   H187    0.949   .     S
C186   C114    1.389   1_565 S
O188   C407    1.261   .     S
C189   C408    1.385   .     S
C189   H190    0.949   .     S
C189   C303    1.389   .     S
O191   C409    1.261   .     S
C192   C410    1.385   .     S
C192   H193    0.949   .     S
C192   C318    1.389   1_455 S
O194   C411    1.261   .     S
C195   C412    1.385   .     S
C195   H196    0.949   .     S
O197   C413    1.261   .     S
C198   C414    1.385   .     S
C198   H199    0.949   .     S
C198   C312    1.389   1_455 S
O200   C415    1.261   .     S
C201   C416    1.385   .     S
C201   H202    0.949   .     S
C201   C315    1.389   .     S
O203   C411    1.261   .     S
C204   C412    1.385   .     S
C204   H205    0.949   .     S
O206   C417    1.261   .     S
C207   C418    1.385   .     S
C207   H208    0.949   .     S
C207   C81     1.389   1_655 S
O209   C419    1.261   .     S
C210   C420    1.385   .     S
C210   H211    0.949   .     S
C210   C327    1.389   .     S
O212   C421    1.261   .     S
C213   C422    1.385   .     S
C213   H214    0.949   .     S
C213   C321    1.389   1_655 S
O215   C417    1.261   .     S
C216   C418    1.385   .     S
C216   H217    0.949   .     S
C216   C72     1.389   1_655 S
O218   C423    1.261   .     S
C219   C424    1.385   .     S
C219   H220    0.949   .     S
C219   C324    1.389   .     S
O221   C381    1.261   .     S
C222   C382    1.385   .     S
C222   H223    0.949   .     S
C222   C48     1.389   1_556 S
O224   C383    1.261   .     S
C225   C384    1.385   .     S
C225   H226    0.949   .     S
O227   C379    1.261   .     S
C228   C380    1.385   .     S
C228   H229    0.949   .     S
O230   C385    1.261   .     S
C231   C386    1.385   .     S
C231   H232    0.949   .     S
C231   C66     1.389   1_554 S
O233   C389    1.261   .     S
C234   C390    1.385   .     S
C234   H235    0.949   .     S
C234   C57     1.389   1_554 S
O236   C391    1.261   .     S
C237   C392    1.385   .     S
C237   H238    0.949   .     S
O239   C421    1.261   .     S
C240   C422    1.385   .     S
C240   H241    0.949   .     S
C240   C78     1.389   1_655 S
O242   C423    1.261   .     S
C243   C424    1.385   .     S
C243   H244    0.949   .     S
O245   C419    1.261   .     S
C246   C420    1.385   .     S
C246   H247    0.949   .     S
O248   C409    1.261   .     S
C249   C410    1.385   .     S
C249   H250    0.949   .     S
C249   C96     1.389   1_455 S
O251   C413    1.261   .     S
C252   C414    1.385   .     S
C252   H253    0.949   .     S
C252   C87     1.389   1_455 S
O254   C415    1.261   .     S
C255   C416    1.385   .     S
C255   H256    0.949   .     S
O257   C401    1.261   .     S
C258   C402    1.385   .     S
C258   H259    0.949   .     S
C258   C108    1.389   1_565 S
O260   C403    1.261   .     S
C261   C404    1.385   .     S
C261   H262    0.949   .     S
O263   C407    1.261   .     S
C264   C408    1.385   .     S
C264   H265    0.949   .     S
O266   C397    1.261   .     S
C267   C398    1.385   .     S
C267   H268    0.949   .     S
C267   C123    1.389   1_545 S
O269   C399    1.261   .     S
C270   C400    1.385   .     S
C270   H271    0.949   .     S
O272   C393    1.261   .     S
C273   C394    1.385   .     S
C273   H274    0.949   .     S
C273   C117    1.389   1_545 S
O275   C333    1.261   .     S
C276   C334    1.385   .     S
C276   H277    0.949   .     S
C276   C138    1.389   1_554 S
O278   C335    1.261   .     S
C279   C336    1.385   .     S
C279   H280    0.949   .     S
O281   C331    1.261   .     S
C282   C332    1.385   .     S
C282   H283    0.949   .     S
O284   C337    1.261   .     S
C285   C338    1.385   .     S
C285   H286    0.949   .     S
C285   C153    1.389   1_556 S
O287   C339    1.261   .     S
C288   C340    1.385   .     S
C288   H289    0.949   .     S
O290   C343    1.261   .     S
C291   C344    1.385   .     S
C291   H292    0.949   .     S
C291   C147    1.389   1_556 S
O293   C373    1.261   .     S
C294   C374    1.385   .     S
C294   H295    0.949   .     S
C294   C168    1.389   1_565 S
O296   C375    1.261   .     S
C297   C376    1.385   .     S
C297   H298    0.949   .     S
O299   C369    1.261   .     S
C300   C370    1.385   .     S
C300   H301    0.949   .     S
C300   C162    1.389   1_565 S
O302   C363    1.261   .     S
C303   C364    1.385   .     S
C303   H304    0.949   .     S
O305   C365    1.261   .     S
C306   C366    1.385   .     S
C306   H307    0.949   .     S
C306   C177    1.389   1_545 S
O308   C367    1.261   .     S
C309   C368    1.385   .     S
C309   H310    0.949   .     S
O311   C353    1.261   .     S
C312   C354    1.385   .     S
C312   H313    0.949   .     S
C312   C198    1.389   1_655 S
O314   C355    1.261   .     S
C315   C356    1.385   .     S
C315   H316    0.949   .     S
O317   C359    1.261   .     S
C318   C360    1.385   .     S
C318   H319    0.949   .     S
C318   C192    1.389   1_655 S
O320   C349    1.261   .     S
C321   C350    1.385   .     S
C321   H322    0.949   .     S
C321   C213    1.389   1_455 S
O323   C351    1.261   .     S
C324   C352    1.385   .     S
C324   H325    0.949   .     S
O326   C347    1.261   .     S
C327   C348    1.385   .     S
C327   H328    0.949   .     S
C329   C330    1.501   .     S
C331   C332    1.501   .     S
C333   C334    1.501   .     S
C335   C336    1.501   .     S
C337   C338    1.501   .     S
C339   C340    1.501   .     S
C341   C342    1.501   .     S
C343   C344    1.501   .     S
C345   C346    1.501   .     S
C347   C348    1.501   .     S
C349   C350    1.501   .     S
C351   C352    1.501   .     S
C353   C354    1.501   .     S
C355   C356    1.501   .     S
C357   C358    1.501   .     S
C359   C360    1.501   .     S
C361   C362    1.501   .     S
C363   C364    1.501   .     S
C365   C366    1.501   .     S
C367   C368    1.501   .     S
C369   C370    1.501   .     S
C371   C372    1.501   .     S
C373   C374    1.501   .     S
C375   C376    1.501   .     S
C377   C378    1.501   .     S
C379   C380    1.501   .     S
C381   C382    1.501   .     S
C383   C384    1.501   .     S
C385   C386    1.501   .     S
C387   C388    1.501   .     S
C389   C390    1.501   .     S
C391   C392    1.501   .     S
C393   C394    1.501   .     S
C395   C396    1.501   .     S
C397   C398    1.501   .     S
C399   C400    1.501   .     S
C401   C402    1.501   .     S
C403   C404    1.501   .     S
C405   C406    1.501   .     S
C407   C408    1.501   .     S
C409   C410    1.501   .     S
C411   C412    1.501   .     S
C413   C414    1.501   .     S
C415   C416    1.501   .     S
C417   C418    1.501   .     S
C419   C420    1.501   .     S
C421   C422    1.501   .     S
C423   C424    1.501   .     S
