# Generated by pormake.
# Topology lta, (4)-cn, num edge types: 1
# Building blocks:
#     Node 0, Type 0, BuildingBlock: N671, # of connection points: 5
#     Node 1, Type 0, BuildingBlock: N671, # of connection points: 5
#     Node 2, Type 0, BuildingBlock: N671, # of connection points: 5
#     Node 3, Type 0, BuildingBlock: N671, # of connection points: 5
#     Node 4, Type 0, BuildingBlock: N671, # of connection points: 5
#     Node 5, Type 0, BuildingBlock: N671, # of connection points: 5
#     Node 6, Type 0, BuildingBlock: N671, # of connection points: 5
#     Node 7, Type 0, BuildingBlock: N671, # of connection points: 5
#     Node 8, Type 0, BuildingBlock: N671, # of connection points: 5
#     Node 9, Type 0, BuildingBlock: N671, # of connection points: 5
#     Node 10, Type 0, BuildingBlock: N671, # of connection points: 5
#     Node 11, Type 0, BuildingBlock: N671, # of connection points: 5
#     Node 12, Type 0, BuildingBlock: N671, # of connection points: 5
#     Node 13, Type 0, BuildingBlock: N671, # of connection points: 5
#     Node 14, Type 0, BuildingBlock: N671, # of connection points: 5
#     Node 15, Type 0, BuildingBlock: N671, # of connection points: 5
#     Node 16, Type 0, BuildingBlock: N671, # of connection points: 5
#     Node 17, Type 0, BuildingBlock: N671, # of connection points: 5
#     Node 18, Type 0, BuildingBlock: N671, # of connection points: 5
#     Node 19, Type 0, BuildingBlock: N671, # of connection points: 5
#     Node 20, Type 0, BuildingBlock: N671, # of connection points: 5
#     Node 21, Type 0, BuildingBlock: N671, # of connection points: 5
#     Node 22, Type 0, BuildingBlock: N671, # of connection points: 5
#     Node 23, Type 0, BuildingBlock: N671, # of connection points: 5
#     Edge 24, Type (0, 0), BuildingBlock: E149, # of connection points: 2
#     Edge 25, Type (0, 0), BuildingBlock: E149, # of connection points: 2
#     Edge 26, Type (0, 0), BuildingBlock: E149, # of connection points: 2
#     Edge 27, Type (0, 0), BuildingBlock: E149, # of connection points: 2
#     Edge 28, Type (0, 0), BuildingBlock: E149, # of connection points: 2
#     Edge 29, Type (0, 0), BuildingBlock: E149, # of connection points: 2
#     Edge 30, Type (0, 0), BuildingBlock: E149, # of connection points: 2
#     Edge 31, Type (0, 0), BuildingBlock: E149, # of connection points: 2
#     Edge 32, Type (0, 0), BuildingBlock: E149, # of connection points: 2
#     Edge 33, Type (0, 0), BuildingBlock: E149, # of connection points: 2
#     Edge 34, Type (0, 0), BuildingBlock: E149, # of connection points: 2
#     Edge 35, Type (0, 0), BuildingBlock: E149, # of connection points: 2
#     Edge 36, Type (0, 0), BuildingBlock: E149, # of connection points: 2
#     Edge 37, Type (0, 0), BuildingBlock: E149, # of connection points: 2
#     Edge 38, Type (0, 0), BuildingBlock: E149, # of connection points: 2
#     Edge 39, Type (0, 0), BuildingBlock: E149, # of connection points: 2
#     Edge 40, Type (0, 0), BuildingBlock: E149, # of connection points: 2
#     Edge 41, Type (0, 0), BuildingBlock: E149, # of connection points: 2
#     Edge 42, Type (0, 0), BuildingBlock: E149, # of connection points: 2
#     Edge 43, Type (0, 0), BuildingBlock: E149, # of connection points: 2
#     Edge 44, Type (0, 0), BuildingBlock: E149, # of connection points: 2
#     Edge 45, Type (0, 0), BuildingBlock: E149, # of connection points: 2
#     Edge 46, Type (0, 0), BuildingBlock: E149, # of connection points: 2
#     Edge 47, Type (0, 0), BuildingBlock: E149, # of connection points: 2
#     Edge 48, Type (0, 0), BuildingBlock: E149, # of connection points: 2
#     Edge 49, Type (0, 0), BuildingBlock: E149, # of connection points: 2
#     Edge 50, Type (0, 0), BuildingBlock: E149, # of connection points: 2
#     Edge 51, Type (0, 0), BuildingBlock: E149, # of connection points: 2
#     Edge 52, Type (0, 0), BuildingBlock: E149, # of connection points: 2
#     Edge 53, Type (0, 0), BuildingBlock: E149, # of connection points: 2
#     Edge 54, Type (0, 0), BuildingBlock: E149, # of connection points: 2
#     Edge 55, Type (0, 0), BuildingBlock: E149, # of connection points: 2
#     Edge 56, Type (0, 0), BuildingBlock: E149, # of connection points: 2
#     Edge 57, Type (0, 0), BuildingBlock: E149, # of connection points: 2
#     Edge 58, Type (0, 0), BuildingBlock: E149, # of connection points: 2
#     Edge 59, Type (0, 0), BuildingBlock: E149, # of connection points: 2
#     Edge 60, Type (0, 0), BuildingBlock: E149, # of connection points: 2
#     Edge 61, Type (0, 0), BuildingBlock: E149, # of connection points: 2
#     Edge 62, Type (0, 0), BuildingBlock: E149, # of connection points: 2
#     Edge 63, Type (0, 0), BuildingBlock: E149, # of connection points: 2
#     Edge 64, Type (0, 0), BuildingBlock: E149, # of connection points: 2
#     Edge 65, Type (0, 0), BuildingBlock: E149, # of connection points: 2
#     Edge 66, Type (0, 0), BuildingBlock: E149, # of connection points: 2
#     Edge 67, Type (0, 0), BuildingBlock: E149, # of connection points: 2
#     Edge 68, Type (0, 0), BuildingBlock: E149, # of connection points: 2
#     Edge 69, Type (0, 0), BuildingBlock: E149, # of connection points: 2
#     Edge 70, Type (0, 0), BuildingBlock: E149, # of connection points: 2
#     Edge 71, Type (0, 0), BuildingBlock: E149, # of connection points: 2
# Relax obj value: 0.037
# Max RMSD: 0.170
# Mean RMSD: 0.170
data_lta+N671+E149
_symmetry_space_group_name_H-M    P1
_symmetry_Int_Tables_number       1
_symmetry_cell_setting            triclinic
loop_
_symmetry_equiv_pos_as_xyz
'x, y, z'
_cell_length_a     47.096
_cell_length_b     47.096
_cell_length_c     47.096
_cell_angle_alpha  90.000
_cell_angle_beta   90.000
_cell_angle_gamma  90.000
loop_
_atom_site_label
_atom_site_type_symbol
_atom_site_fract_x
_atom_site_fract_y
_atom_site_fract_z
_atom_type_partial_charge
Zn0 Zn 0.89158 0.48403 0.65504 0.00000
Zn1 Zn 0.83732 0.45299 0.68757 0.00000
Zn2 Zn 0.88265 0.49252 0.72458 0.00000
C3 C 0.88355 0.43149 0.72803 0.00000
O4 O 0.92316 0.50499 0.70751 0.00000
O5 O 0.93021 0.47676 0.67061 0.00000
O6 O 0.89457 0.52149 0.63676 0.00000
O7 O 0.85134 0.51587 0.63124 0.00000
C8 C 0.82069 0.48355 0.73974 0.00000
C9 C 0.87245 0.43427 0.63304 0.00000
C10 C 0.93917 0.49271 0.68968 0.00000
O11 O 0.86298 0.42906 0.65787 0.00000
O12 O 0.88564 0.45654 0.62529 0.00000
O13 O 0.86486 0.48787 0.68585 0.00000
O14 O 0.89613 0.45452 0.73503 0.00000
O15 O 0.86026 0.42980 0.71429 0.00000
O16 O 0.81269 0.47083 0.71731 0.00000
O17 O 0.84357 0.49372 0.74481 0.00000
H18 H 0.85173 0.50525 0.64557 0.00000
C19 C 0.87109 0.53463 0.63330 0.00000
Zn20 Zn 0.51597 0.10842 0.34496 0.00000
Zn21 Zn 0.54701 0.16268 0.31243 0.00000
Zn22 Zn 0.50748 0.11735 0.27542 0.00000
C23 C 0.56851 0.11645 0.27197 0.00000
O24 O 0.49501 0.07684 0.29249 0.00000
O25 O 0.52324 0.06979 0.32939 0.00000
O26 O 0.47851 0.10543 0.36324 0.00000
O27 O 0.48413 0.14866 0.36876 0.00000
C28 C 0.51645 0.17931 0.26026 0.00000
C29 C 0.56573 0.12755 0.36696 0.00000
C30 C 0.50729 0.06083 0.31032 0.00000
O31 O 0.57094 0.13702 0.34213 0.00000
O32 O 0.54346 0.11436 0.37471 0.00000
O33 O 0.51213 0.13514 0.31415 0.00000
O34 O 0.54548 0.10387 0.26497 0.00000
O35 O 0.57020 0.13974 0.28571 0.00000
O36 O 0.52917 0.18731 0.28269 0.00000
O37 O 0.50628 0.15643 0.25519 0.00000
H38 H 0.49475 0.14827 0.35443 0.00000
C39 C 0.46537 0.12891 0.36670 0.00000
Zn40 Zn 0.89158 0.51597 0.34496 0.00000
Zn41 Zn 0.83732 0.54701 0.31243 0.00000
Zn42 Zn 0.88265 0.50748 0.27542 0.00000
C43 C 0.88355 0.56851 0.27197 0.00000
O44 O 0.92316 0.49501 0.29249 0.00000
O45 O 0.93021 0.52324 0.32939 0.00000
O46 O 0.89457 0.47851 0.36324 0.00000
O47 O 0.85134 0.48413 0.36876 0.00000
C48 C 0.82069 0.51645 0.26026 0.00000
C49 C 0.87245 0.56573 0.36696 0.00000
C50 C 0.93917 0.50729 0.31032 0.00000
O51 O 0.86298 0.57094 0.34213 0.00000
O52 O 0.88564 0.54346 0.37471 0.00000
O53 O 0.86486 0.51213 0.31415 0.00000
O54 O 0.89613 0.54548 0.26497 0.00000
O55 O 0.86026 0.57020 0.28571 0.00000
O56 O 0.81269 0.52917 0.28269 0.00000
O57 O 0.84357 0.50628 0.25519 0.00000
H58 H 0.85173 0.49475 0.35443 0.00000
C59 C 0.87109 0.46537 0.36670 0.00000
Zn60 Zn 0.48403 0.89158 0.34496 0.00000
Zn61 Zn 0.45299 0.83732 0.31243 0.00000
Zn62 Zn 0.49252 0.88265 0.27542 0.00000
C63 C 0.43149 0.88355 0.27197 0.00000
O64 O 0.50499 0.92316 0.29249 0.00000
O65 O 0.47676 0.93021 0.32939 0.00000
O66 O 0.52149 0.89457 0.36324 0.00000
O67 O 0.51587 0.85134 0.36876 0.00000
C68 C 0.48355 0.82069 0.26026 0.00000
C69 C 0.43427 0.87245 0.36696 0.00000
C70 C 0.49271 0.93917 0.31032 0.00000
O71 O 0.42906 0.86298 0.34213 0.00000
O72 O 0.45654 0.88564 0.37471 0.00000
O73 O 0.48787 0.86486 0.31415 0.00000
O74 O 0.45452 0.89613 0.26497 0.00000
O75 O 0.42980 0.86026 0.28571 0.00000
O76 O 0.47083 0.81269 0.28269 0.00000
O77 O 0.49372 0.84357 0.25519 0.00000
H78 H 0.50525 0.85173 0.35443 0.00000
C79 C 0.53463 0.87109 0.36670 0.00000
Zn80 Zn 0.10842 0.48403 0.34496 0.00000
Zn81 Zn 0.16268 0.45299 0.31243 0.00000
Zn82 Zn 0.11735 0.49252 0.27542 0.00000
C83 C 0.11645 0.43149 0.27197 0.00000
O84 O 0.07684 0.50499 0.29249 0.00000
O85 O 0.06979 0.47676 0.32939 0.00000
O86 O 0.10543 0.52149 0.36324 0.00000
O87 O 0.14866 0.51587 0.36876 0.00000
C88 C 0.17931 0.48355 0.26026 0.00000
C89 C 0.12755 0.43427 0.36696 0.00000
C90 C 0.06083 0.49271 0.31032 0.00000
O91 O 0.13702 0.42906 0.34213 0.00000
O92 O 0.11436 0.45654 0.37471 0.00000
O93 O 0.13514 0.48787 0.31415 0.00000
O94 O 0.10387 0.45452 0.26497 0.00000
O95 O 0.13974 0.42980 0.28571 0.00000
O96 O 0.18731 0.47083 0.28269 0.00000
O97 O 0.15643 0.49372 0.25519 0.00000
H98 H 0.14827 0.50525 0.35443 0.00000
C99 C 0.12891 0.53463 0.36670 0.00000
Zn100 Zn 0.65504 0.51597 0.89158 0.00000
Zn101 Zn 0.68757 0.54701 0.83732 0.00000
Zn102 Zn 0.72458 0.50748 0.88265 0.00000
C103 C 0.72803 0.56851 0.88355 0.00000
O104 O 0.70751 0.49501 0.92316 0.00000
O105 O 0.67061 0.52324 0.93021 0.00000
O106 O 0.63677 0.47851 0.89457 0.00000
O107 O 0.63124 0.48413 0.85134 0.00000
C108 C 0.73974 0.51645 0.82069 0.00000
C109 C 0.63304 0.56573 0.87245 0.00000
C110 C 0.68968 0.50729 0.93917 0.00000
O111 O 0.65787 0.57094 0.86298 0.00000
O112 O 0.62529 0.54346 0.88564 0.00000
O113 O 0.68585 0.51213 0.86486 0.00000
O114 O 0.73503 0.54548 0.89613 0.00000
O115 O 0.71429 0.57020 0.86026 0.00000
O116 O 0.71731 0.52917 0.81269 0.00000
O117 O 0.74481 0.50628 0.84357 0.00000
H118 H 0.64557 0.49475 0.85173 0.00000
C119 C 0.63330 0.46537 0.87109 0.00000
Zn120 Zn 0.65504 0.48403 0.10842 0.00000
Zn121 Zn 0.68757 0.45299 0.16268 0.00000
Zn122 Zn 0.72458 0.49252 0.11735 0.00000
C123 C 0.72803 0.43149 0.11645 0.00000
O124 O 0.70751 0.50499 0.07684 0.00000
O125 O 0.67061 0.47676 0.06979 0.00000
O126 O 0.63676 0.52149 0.10543 0.00000
O127 O 0.63124 0.51587 0.14866 0.00000
C128 C 0.73974 0.48355 0.17931 0.00000
C129 C 0.63304 0.43427 0.12755 0.00000
C130 C 0.68968 0.49271 0.06083 0.00000
O131 O 0.65787 0.42906 0.13702 0.00000
O132 O 0.62529 0.45654 0.11436 0.00000
O133 O 0.68585 0.48787 0.13514 0.00000
O134 O 0.73503 0.45452 0.10387 0.00000
O135 O 0.71429 0.42980 0.13974 0.00000
O136 O 0.71731 0.47083 0.18731 0.00000
O137 O 0.74481 0.49372 0.15643 0.00000
H138 H 0.64557 0.50525 0.14827 0.00000
C139 C 0.63330 0.53463 0.12891 0.00000
Zn140 Zn 0.51597 0.89158 0.65504 0.00000
Zn141 Zn 0.54701 0.83732 0.68757 0.00000
Zn142 Zn 0.50748 0.88265 0.72458 0.00000
C143 C 0.56851 0.88355 0.72803 0.00000
O144 O 0.49501 0.92316 0.70751 0.00000
O145 O 0.52324 0.93021 0.67061 0.00000
O146 O 0.47851 0.89457 0.63676 0.00000
O147 O 0.48413 0.85134 0.63124 0.00000
C148 C 0.51645 0.82069 0.73974 0.00000
C149 C 0.56573 0.87245 0.63304 0.00000
C150 C 0.50729 0.93917 0.68968 0.00000
O151 O 0.57094 0.86298 0.65787 0.00000
O152 O 0.54346 0.88564 0.62529 0.00000
O153 O 0.51213 0.86486 0.68585 0.00000
O154 O 0.54548 0.89613 0.73503 0.00000
O155 O 0.57020 0.86026 0.71429 0.00000
O156 O 0.52917 0.81269 0.71731 0.00000
O157 O 0.50628 0.84357 0.74481 0.00000
H158 H 0.49475 0.85173 0.64557 0.00000
C159 C 0.46537 0.87109 0.63330 0.00000
Zn160 Zn 0.34496 0.89158 0.51597 0.00000
Zn161 Zn 0.31243 0.83732 0.54701 0.00000
Zn162 Zn 0.27542 0.88265 0.50748 0.00000
C163 C 0.27197 0.88355 0.56851 0.00000
O164 O 0.29249 0.92316 0.49501 0.00000
O165 O 0.32939 0.93021 0.52324 0.00000
O166 O 0.36324 0.89457 0.47851 0.00000
O167 O 0.36876 0.85134 0.48413 0.00000
C168 C 0.26026 0.82069 0.51645 0.00000
C169 C 0.36696 0.87245 0.56573 0.00000
C170 C 0.31032 0.93917 0.50729 0.00000
O171 O 0.34213 0.86298 0.57094 0.00000
O172 O 0.37471 0.88564 0.54346 0.00000
O173 O 0.31415 0.86486 0.51213 0.00000
O174 O 0.26497 0.89613 0.54548 0.00000
O175 O 0.28571 0.86026 0.57020 0.00000
O176 O 0.28269 0.81269 0.52917 0.00000
O177 O 0.25519 0.84357 0.50628 0.00000
H178 H 0.35443 0.85173 0.49475 0.00000
C179 C 0.36670 0.87109 0.46537 0.00000
Zn180 Zn 0.10842 0.65504 0.48403 0.00000
Zn181 Zn 0.16268 0.68757 0.45299 0.00000
Zn182 Zn 0.11735 0.72458 0.49252 0.00000
C183 C 0.11645 0.72803 0.43149 0.00000
O184 O 0.07684 0.70751 0.50499 0.00000
O185 O 0.06979 0.67061 0.47676 0.00000
O186 O 0.10543 0.63676 0.52149 0.00000
O187 O 0.14866 0.63124 0.51587 0.00000
C188 C 0.17931 0.73974 0.48355 0.00000
C189 C 0.12755 0.63304 0.43427 0.00000
C190 C 0.06083 0.68968 0.49271 0.00000
O191 O 0.13702 0.65787 0.42906 0.00000
O192 O 0.11436 0.62529 0.45654 0.00000
O193 O 0.13514 0.68585 0.48787 0.00000
O194 O 0.10387 0.73503 0.45452 0.00000
O195 O 0.13974 0.71429 0.42980 0.00000
O196 O 0.18731 0.71731 0.47083 0.00000
O197 O 0.15643 0.74481 0.49372 0.00000
H198 H 0.14827 0.64557 0.50525 0.00000
C199 C 0.12891 0.63330 0.53463 0.00000
Zn200 Zn 0.65504 0.10842 0.51597 0.00000
Zn201 Zn 0.68757 0.16268 0.54701 0.00000
Zn202 Zn 0.72458 0.11735 0.50748 0.00000
C203 C 0.72803 0.11645 0.56851 0.00000
O204 O 0.70751 0.07684 0.49501 0.00000
O205 O 0.67061 0.06979 0.52324 0.00000
O206 O 0.63676 0.10543 0.47851 0.00000
O207 O 0.63124 0.14866 0.48413 0.00000
C208 C 0.73974 0.17931 0.51645 0.00000
C209 C 0.63304 0.12755 0.56573 0.00000
C210 C 0.68968 0.06083 0.50729 0.00000
O211 O 0.65787 0.13702 0.57094 0.00000
O212 O 0.62529 0.11436 0.54346 0.00000
O213 O 0.68585 0.13514 0.51213 0.00000
O214 O 0.73503 0.10387 0.54548 0.00000
O215 O 0.71429 0.13974 0.57020 0.00000
O216 O 0.71731 0.18731 0.52917 0.00000
O217 O 0.74481 0.15643 0.50628 0.00000
H218 H 0.64557 0.14827 0.49475 0.00000
C219 C 0.63330 0.12891 0.46537 0.00000
Zn220 Zn 0.89158 0.65504 0.51597 0.00000
Zn221 Zn 0.83732 0.68757 0.54701 0.00000
Zn222 Zn 0.88265 0.72458 0.50748 0.00000
C223 C 0.88355 0.72803 0.56851 0.00000
O224 O 0.92316 0.70751 0.49501 0.00000
O225 O 0.93021 0.67061 0.52324 0.00000
O226 O 0.89457 0.63676 0.47851 0.00000
O227 O 0.85134 0.63124 0.48413 0.00000
C228 C 0.82069 0.73974 0.51645 0.00000
C229 C 0.87245 0.63304 0.56573 0.00000
C230 C 0.93917 0.68968 0.50729 0.00000
O231 O 0.86298 0.65787 0.57094 0.00000
O232 O 0.88564 0.62529 0.54346 0.00000
O233 O 0.86486 0.68585 0.51213 0.00000
O234 O 0.89613 0.73503 0.54548 0.00000
O235 O 0.86026 0.71429 0.57020 0.00000
O236 O 0.81269 0.71731 0.52917 0.00000
O237 O 0.84357 0.74481 0.50628 0.00000
H238 H 0.85173 0.64557 0.49475 0.00000
C239 C 0.87109 0.63330 0.46537 0.00000
Zn240 Zn 0.10842 0.34496 0.51597 0.00000
Zn241 Zn 0.16268 0.31243 0.54701 0.00000
Zn242 Zn 0.11735 0.27542 0.50748 0.00000
C243 C 0.11645 0.27197 0.56851 0.00000
O244 O 0.07684 0.29249 0.49501 0.00000
O245 O 0.06979 0.32939 0.52324 0.00000
O246 O 0.10543 0.36324 0.47851 0.00000
O247 O 0.14866 0.36876 0.48413 0.00000
C248 C 0.17931 0.26026 0.51645 0.00000
C249 C 0.12755 0.36696 0.56573 0.00000
C250 C 0.06083 0.31032 0.50729 0.00000
O251 O 0.13702 0.34213 0.57094 0.00000
O252 O 0.11436 0.37471 0.54346 0.00000
O253 O 0.13514 0.31415 0.51213 0.00000
O254 O 0.10387 0.26497 0.54548 0.00000
O255 O 0.13974 0.28571 0.57020 0.00000
O256 O 0.18731 0.28269 0.52917 0.00000
O257 O 0.15643 0.25519 0.50628 0.00000
H258 H 0.14827 0.35443 0.49475 0.00000
C259 C 0.12891 0.36670 0.46537 0.00000
Zn260 Zn 0.34496 0.10842 0.48403 0.00000
Zn261 Zn 0.31243 0.16268 0.45299 0.00000
Zn262 Zn 0.27542 0.11735 0.49252 0.00000
C263 C 0.27197 0.11645 0.43149 0.00000
O264 O 0.29249 0.07684 0.50499 0.00000
O265 O 0.32939 0.06979 0.47676 0.00000
O266 O 0.36323 0.10543 0.52149 0.00000
O267 O 0.36876 0.14866 0.51587 0.00000
C268 C 0.26026 0.17931 0.48355 0.00000
C269 C 0.36696 0.12755 0.43427 0.00000
C270 C 0.31032 0.06083 0.49271 0.00000
O271 O 0.34213 0.13702 0.42906 0.00000
O272 O 0.37471 0.11436 0.45654 0.00000
O273 O 0.31415 0.13514 0.48787 0.00000
O274 O 0.26497 0.10387 0.45452 0.00000
O275 O 0.28571 0.13974 0.42980 0.00000
O276 O 0.28269 0.18731 0.47083 0.00000
O277 O 0.25519 0.15643 0.49372 0.00000
H278 H 0.35443 0.14827 0.50525 0.00000
C279 C 0.36670 0.12891 0.53463 0.00000
Zn280 Zn 0.89158 0.34496 0.48403 0.00000
Zn281 Zn 0.83732 0.31243 0.45299 0.00000
Zn282 Zn 0.88265 0.27542 0.49252 0.00000
C283 C 0.88355 0.27197 0.43149 0.00000
O284 O 0.92316 0.29249 0.50499 0.00000
O285 O 0.93021 0.32939 0.47676 0.00000
O286 O 0.89457 0.36324 0.52149 0.00000
O287 O 0.85134 0.36876 0.51587 0.00000
C288 C 0.82069 0.26026 0.48355 0.00000
C289 C 0.87245 0.36696 0.43427 0.00000
C290 C 0.93917 0.31032 0.49271 0.00000
O291 O 0.86298 0.34213 0.42906 0.00000
O292 O 0.88564 0.37471 0.45654 0.00000
O293 O 0.86486 0.31415 0.48787 0.00000
O294 O 0.89613 0.26497 0.45452 0.00000
O295 O 0.86026 0.28571 0.42980 0.00000
O296 O 0.81269 0.28269 0.47083 0.00000
O297 O 0.84357 0.25519 0.49372 0.00000
H298 H 0.85173 0.35443 0.50525 0.00000
C299 C 0.87109 0.36670 0.53463 0.00000
Zn300 Zn 0.48403 0.65504 0.89158 0.00000
Zn301 Zn 0.45299 0.68757 0.83732 0.00000
Zn302 Zn 0.49252 0.72458 0.88265 0.00000
C303 C 0.43149 0.72803 0.88355 0.00000
O304 O 0.50499 0.70751 0.92316 0.00000
O305 O 0.47676 0.67061 0.93021 0.00000
O306 O 0.52149 0.63676 0.89457 0.00000
O307 O 0.51587 0.63124 0.85134 0.00000
C308 C 0.48355 0.73974 0.82069 0.00000
C309 C 0.43427 0.63304 0.87245 0.00000
C310 C 0.49271 0.68968 0.93917 0.00000
O311 O 0.42906 0.65787 0.86298 0.00000
O312 O 0.45654 0.62529 0.88564 0.00000
O313 O 0.48787 0.68585 0.86486 0.00000
O314 O 0.45452 0.73503 0.89613 0.00000
O315 O 0.42980 0.71429 0.86026 0.00000
O316 O 0.47083 0.71731 0.81269 0.00000
O317 O 0.49372 0.74481 0.84357 0.00000
H318 H 0.50525 0.64557 0.85173 0.00000
C319 C 0.53463 0.63330 0.87109 0.00000
Zn320 Zn 0.51597 0.65504 0.10842 0.00000
Zn321 Zn 0.54701 0.68757 0.16268 0.00000
Zn322 Zn 0.50748 0.72458 0.11735 0.00000
C323 C 0.56851 0.72803 0.11645 0.00000
O324 O 0.49501 0.70751 0.07684 0.00000
O325 O 0.52324 0.67061 0.06979 0.00000
O326 O 0.47851 0.63676 0.10543 0.00000
O327 O 0.48413 0.63124 0.14866 0.00000
C328 C 0.51645 0.73974 0.17931 0.00000
C329 C 0.56573 0.63304 0.12755 0.00000
C330 C 0.50729 0.68968 0.06083 0.00000
O331 O 0.57094 0.65787 0.13702 0.00000
O332 O 0.54346 0.62529 0.11436 0.00000
O333 O 0.51213 0.68585 0.13514 0.00000
O334 O 0.54548 0.73503 0.10387 0.00000
O335 O 0.57020 0.71429 0.13974 0.00000
O336 O 0.52917 0.71731 0.18731 0.00000
O337 O 0.50628 0.74481 0.15643 0.00000
H338 H 0.49475 0.64557 0.14827 0.00000
C339 C 0.46537 0.63330 0.12891 0.00000
Zn340 Zn 0.34496 0.51597 0.10842 0.00000
Zn341 Zn 0.31243 0.54701 0.16268 0.00000
Zn342 Zn 0.27542 0.50748 0.11735 0.00000
C343 C 0.27197 0.56851 0.11645 0.00000
O344 O 0.29249 0.49501 0.07684 0.00000
O345 O 0.32939 0.52324 0.06979 0.00000
O346 O 0.36323 0.47851 0.10543 0.00000
O347 O 0.36876 0.48413 0.14866 0.00000
C348 C 0.26026 0.51645 0.17931 0.00000
C349 C 0.36696 0.56573 0.12755 0.00000
C350 C 0.31032 0.50729 0.06083 0.00000
O351 O 0.34213 0.57094 0.13702 0.00000
O352 O 0.37471 0.54346 0.11436 0.00000
O353 O 0.31415 0.51213 0.13514 0.00000
O354 O 0.26497 0.54548 0.10387 0.00000
O355 O 0.28571 0.57020 0.13974 0.00000
O356 O 0.28269 0.52917 0.18731 0.00000
O357 O 0.25519 0.50628 0.15643 0.00000
H358 H 0.35443 0.49475 0.14827 0.00000
C359 C 0.36670 0.46537 0.12891 0.00000
Zn360 Zn 0.48403 0.34496 0.10842 0.00000
Zn361 Zn 0.45299 0.31243 0.16268 0.00000
Zn362 Zn 0.49252 0.27542 0.11735 0.00000
C363 C 0.43149 0.27197 0.11645 0.00000
O364 O 0.50499 0.29249 0.07684 0.00000
O365 O 0.47676 0.32939 0.06979 0.00000
O366 O 0.52149 0.36324 0.10543 0.00000
O367 O 0.51587 0.36876 0.14866 0.00000
C368 C 0.48355 0.26026 0.17931 0.00000
C369 C 0.43427 0.36696 0.12755 0.00000
C370 C 0.49271 0.31032 0.06083 0.00000
O371 O 0.42906 0.34213 0.13702 0.00000
O372 O 0.45654 0.37471 0.11436 0.00000
O373 O 0.48787 0.31415 0.13514 0.00000
O374 O 0.45452 0.26497 0.10387 0.00000
O375 O 0.42980 0.28571 0.13974 0.00000
O376 O 0.47083 0.28269 0.18731 0.00000
O377 O 0.49372 0.25519 0.15643 0.00000
H378 H 0.50525 0.35443 0.14827 0.00000
C379 C 0.53463 0.36670 0.12891 0.00000
Zn380 Zn 0.34496 0.48403 0.89158 0.00000
Zn381 Zn 0.31243 0.45299 0.83732 0.00000
Zn382 Zn 0.27542 0.49252 0.88265 0.00000
C383 C 0.27197 0.43149 0.88355 0.00000
O384 O 0.29249 0.50499 0.92316 0.00000
O385 O 0.32939 0.47676 0.93021 0.00000
O386 O 0.36324 0.52149 0.89457 0.00000
O387 O 0.36876 0.51587 0.85134 0.00000
C388 C 0.26026 0.48355 0.82069 0.00000
C389 C 0.36696 0.43427 0.87245 0.00000
C390 C 0.31032 0.49271 0.93917 0.00000
O391 O 0.34213 0.42906 0.86298 0.00000
O392 O 0.37471 0.45654 0.88564 0.00000
O393 O 0.31415 0.48787 0.86486 0.00000
O394 O 0.26497 0.45452 0.89613 0.00000
O395 O 0.28571 0.42980 0.86026 0.00000
O396 O 0.28269 0.47083 0.81269 0.00000
O397 O 0.25519 0.49372 0.84357 0.00000
H398 H 0.35443 0.50525 0.85173 0.00000
C399 C 0.36670 0.53463 0.87109 0.00000
Zn400 Zn 0.51597 0.34496 0.89158 0.00000
Zn401 Zn 0.54701 0.31243 0.83732 0.00000
Zn402 Zn 0.50748 0.27542 0.88265 0.00000
C403 C 0.56851 0.27197 0.88355 0.00000
O404 O 0.49501 0.29249 0.92316 0.00000
O405 O 0.52324 0.32939 0.93021 0.00000
O406 O 0.47851 0.36324 0.89457 0.00000
O407 O 0.48413 0.36876 0.85134 0.00000
C408 C 0.51645 0.26026 0.82069 0.00000
C409 C 0.56573 0.36696 0.87245 0.00000
C410 C 0.50729 0.31032 0.93917 0.00000
O411 O 0.57094 0.34213 0.86298 0.00000
O412 O 0.54346 0.37471 0.88564 0.00000
O413 O 0.51213 0.31415 0.86486 0.00000
O414 O 0.54548 0.26497 0.89613 0.00000
O415 O 0.57020 0.28571 0.86026 0.00000
O416 O 0.52917 0.28269 0.81269 0.00000
O417 O 0.50628 0.25519 0.84357 0.00000
H418 H 0.49475 0.35443 0.85173 0.00000
C419 C 0.46537 0.36670 0.87109 0.00000
Zn420 Zn 0.65504 0.89158 0.48403 0.00000
Zn421 Zn 0.68757 0.83732 0.45299 0.00000
Zn422 Zn 0.72458 0.88265 0.49252 0.00000
C423 C 0.72803 0.88355 0.43149 0.00000
O424 O 0.70751 0.92316 0.50499 0.00000
O425 O 0.67061 0.93021 0.47676 0.00000
O426 O 0.63676 0.89457 0.52149 0.00000
O427 O 0.63124 0.85134 0.51587 0.00000
C428 C 0.73974 0.82069 0.48355 0.00000
C429 C 0.63304 0.87245 0.43427 0.00000
C430 C 0.68968 0.93917 0.49271 0.00000
O431 O 0.65787 0.86298 0.42906 0.00000
O432 O 0.62529 0.88564 0.45654 0.00000
O433 O 0.68585 0.86486 0.48787 0.00000
O434 O 0.73503 0.89613 0.45452 0.00000
O435 O 0.71429 0.86026 0.42980 0.00000
O436 O 0.71731 0.81269 0.47083 0.00000
O437 O 0.74481 0.84357 0.49372 0.00000
H438 H 0.64557 0.85173 0.50525 0.00000
C439 C 0.63330 0.87109 0.53463 0.00000
Zn440 Zn 0.10842 0.51597 0.65504 0.00000
Zn441 Zn 0.16268 0.54701 0.68757 0.00000
Zn442 Zn 0.11735 0.50748 0.72458 0.00000
C443 C 0.11645 0.56851 0.72803 0.00000
O444 O 0.07684 0.49501 0.70751 0.00000
O445 O 0.06979 0.52324 0.67061 0.00000
O446 O 0.10543 0.47851 0.63677 0.00000
O447 O 0.14866 0.48413 0.63124 0.00000
C448 C 0.17931 0.51645 0.73974 0.00000
C449 C 0.12755 0.56573 0.63304 0.00000
C450 C 0.06083 0.50729 0.68968 0.00000
O451 O 0.13702 0.57094 0.65787 0.00000
O452 O 0.11436 0.54346 0.62529 0.00000
O453 O 0.13514 0.51213 0.68585 0.00000
O454 O 0.10387 0.54548 0.73503 0.00000
O455 O 0.13974 0.57020 0.71429 0.00000
O456 O 0.18731 0.52917 0.71731 0.00000
O457 O 0.15643 0.50628 0.74481 0.00000
H458 H 0.14827 0.49475 0.64557 0.00000
C459 C 0.12891 0.46537 0.63330 0.00000
Zn460 Zn 0.48403 0.10842 0.65504 0.00000
Zn461 Zn 0.45299 0.16268 0.68757 0.00000
Zn462 Zn 0.49252 0.11735 0.72458 0.00000
C463 C 0.43149 0.11645 0.72803 0.00000
O464 O 0.50499 0.07684 0.70751 0.00000
O465 O 0.47676 0.06979 0.67061 0.00000
O466 O 0.52149 0.10543 0.63676 0.00000
O467 O 0.51587 0.14866 0.63124 0.00000
C468 C 0.48355 0.17931 0.73974 0.00000
C469 C 0.43427 0.12755 0.63304 0.00000
C470 C 0.49271 0.06083 0.68968 0.00000
O471 O 0.42906 0.13702 0.65787 0.00000
O472 O 0.45654 0.11436 0.62529 0.00000
O473 O 0.48787 0.13514 0.68585 0.00000
O474 O 0.45452 0.10387 0.73503 0.00000
O475 O 0.42980 0.13974 0.71429 0.00000
O476 O 0.47083 0.18731 0.71731 0.00000
O477 O 0.49372 0.15643 0.74481 0.00000
H478 H 0.50525 0.14827 0.64557 0.00000
C479 C 0.53463 0.12891 0.63330 0.00000
H480 H 0.81869 0.44554 0.54400 0.00000
H481 H 0.79858 0.42237 0.55877 0.00000
H482 H 0.90734 0.39408 0.62002 0.00000
H483 H 0.91152 0.36888 0.58024 0.00000
C484 C 0.87569 0.38033 0.56013 0.00000
C485 C 0.85228 0.41712 0.58669 0.00000
C486 C 0.81855 0.42849 0.55627 0.00000
C487 C 0.87062 0.41568 0.60901 0.00000
O488 O 0.83421 0.40681 0.54356 0.00000
C489 C 0.85429 0.39989 0.56192 0.00000
O490 O 0.83061 0.43508 0.58302 0.00000
C491 C 0.89346 0.39610 0.60552 0.00000
C492 C 0.89531 0.38074 0.58218 0.00000
H493 H 0.66900 0.11365 0.36607 0.00000
H494 H 0.66929 0.14745 0.37016 0.00000
H495 H 0.58129 0.11897 0.45862 0.00000
H496 H 0.55531 0.12135 0.41919 0.00000
C497 C 0.58578 0.12925 0.39042 0.00000
C498 C 0.63154 0.12646 0.41288 0.00000
C499 C 0.65903 0.12977 0.37512 0.00000
C500 C 0.62069 0.12317 0.43949 0.00000
O501 O 0.63115 0.13119 0.36523 0.00000
C502 C 0.61472 0.12941 0.38793 0.00000
O503 O 0.65881 0.12616 0.40497 0.00000
C504 C 0.59048 0.12157 0.44085 0.00000
C505 C 0.57526 0.12376 0.41744 0.00000
H506 H 0.85720 0.53701 0.46413 0.00000
H507 H 0.82615 0.54965 0.45816 0.00000
H508 H 0.89106 0.61904 0.37242 0.00000
H509 H 0.89661 0.64439 0.41194 0.00000
C510 C 0.87604 0.61959 0.43988 0.00000
C511 C 0.86235 0.57600 0.41710 0.00000
C512 C 0.84666 0.55230 0.45431 0.00000
C513 C 0.87103 0.58447 0.39084 0.00000
O514 O 0.85548 0.57870 0.46441 0.00000
C515 C 0.86468 0.59294 0.44204 0.00000
O516 O 0.85174 0.55079 0.42471 0.00000
C517 C 0.88414 0.61174 0.38991 0.00000
C518 C 0.88664 0.62690 0.41332 0.00000
H519 H 0.43946 0.94173 0.43763 0.00000
H520 H 0.45710 0.91679 0.45268 0.00000
H521 H 0.38215 0.84416 0.37861 0.00000
H522 H 0.35479 0.85121 0.41652 0.00000
C523 C 0.38007 0.87667 0.43957 0.00000
C524 C 0.42138 0.88896 0.41219 0.00000
C525 C 0.44039 0.92095 0.44060 0.00000
C526 C 0.41478 0.87127 0.39027 0.00000
O527 O 0.41570 0.91159 0.45401 0.00000
C528 C 0.40445 0.89226 0.43703 0.00000
O529 O 0.44323 0.90698 0.41413 0.00000
C530 C 0.38842 0.85665 0.39316 0.00000
C531 C 0.37274 0.86041 0.41605 0.00000
H532 H 0.20601 0.41356 0.43587 0.00000
H533 H 0.20896 0.38604 0.41603 0.00000
H534 H 0.08599 0.41258 0.39249 0.00000
H535 H 0.08319 0.38692 0.43210 0.00000
C536 C 0.12459 0.38010 0.43973 0.00000
C537 C 0.15266 0.40675 0.40644 0.00000
C538 C 0.19523 0.39953 0.42452 0.00000
C539 C 0.12986 0.41563 0.39101 0.00000
O540 O 0.17625 0.38495 0.44195 0.00000
C541 C 0.15076 0.38914 0.43094 0.00000
O542 O 0.17996 0.41359 0.40277 0.00000
C543 C 0.10295 0.40698 0.40187 0.00000
C544 C 0.10157 0.39115 0.42493 0.00000
H545 H 0.53891 0.53567 0.89244 0.00000
H546 H 0.53643 0.53698 0.85850 0.00000
H547 H 0.62911 0.62395 0.87353 0.00000
H548 H 0.59007 0.64984 0.87997 0.00000
C549 C 0.56018 0.61963 0.87633 0.00000
C550 C 0.58256 0.57389 0.87263 0.00000
C551 C 0.54474 0.54643 0.87535 0.00000
C552 C 0.60935 0.58471 0.87125 0.00000
O553 O 0.53489 0.57429 0.87717 0.00000
C554 C 0.55758 0.59072 0.87531 0.00000
O555 O 0.57473 0.54661 0.87317 0.00000
C556 C 0.61113 0.61481 0.87396 0.00000
C557 C 0.58781 0.63001 0.87701 0.00000
H558 H 0.53576 0.46388 0.13813 0.00000
H559 H 0.54063 0.45266 0.16991 0.00000
H560 H 0.62804 0.37996 0.11113 0.00000
H561 H 0.58858 0.35456 0.10545 0.00000
C562 C 0.56012 0.38041 0.12392 0.00000
C563 C 0.58270 0.42449 0.13634 0.00000
C564 C 0.54514 0.44905 0.14968 0.00000
C565 C 0.60918 0.41551 0.12894 0.00000
O566 O 0.53517 0.42231 0.14175 0.00000
C567 C 0.55775 0.40756 0.13396 0.00000
O568 O 0.57490 0.45019 0.14552 0.00000
C569 C 0.61038 0.38765 0.11712 0.00000
C570 C 0.58697 0.37250 0.11455 0.00000
H571 H 0.55730 0.79906 0.42397 0.00000
H572 H 0.54333 0.82069 0.44625 0.00000
H573 H 0.58552 0.90656 0.36124 0.00000
H574 H 0.62379 0.89955 0.38809 0.00000
C575 C 0.60904 0.86978 0.41483 0.00000
C576 C 0.56235 0.85530 0.40009 0.00000
C577 C 0.55572 0.81932 0.42931 0.00000
C578 C 0.56038 0.87525 0.37924 0.00000
O579 O 0.58254 0.83021 0.43553 0.00000
C580 C 0.58638 0.85191 0.41813 0.00000
O581 O 0.54368 0.83493 0.40660 0.00000
C582 C 0.58509 0.89236 0.37557 0.00000
C583 C 0.60737 0.88853 0.39209 0.00000
H584 H 0.09865 0.63280 0.33495 0.00000
H585 H 0.13227 0.63242 0.32953 0.00000
H586 H 0.12696 0.54060 0.41853 0.00000
H587 H 0.12903 0.57983 0.44485 0.00000
C588 C 0.12914 0.60956 0.41428 0.00000
C589 C 0.12187 0.58733 0.36889 0.00000
C590 C 0.11697 0.62547 0.34218 0.00000
C591 C 0.12311 0.56043 0.37944 0.00000
O592 O 0.12151 0.63521 0.36977 0.00000
C593 C 0.12466 0.61230 0.38571 0.00000
O594 O 0.11662 0.59540 0.34219 0.00000
C595 C 0.12624 0.55863 0.40950 0.00000
C596 C 0.12820 0.58200 0.42481 0.00000
H597 H 0.46021 0.89626 0.53628 0.00000
H598 H 0.46363 0.86238 0.53627 0.00000
H599 H 0.37101 0.87149 0.62412 0.00000
H600 H 0.40998 0.87801 0.65008 0.00000
C601 C 0.43981 0.87636 0.61965 0.00000
C602 C 0.41731 0.87380 0.57388 0.00000
C603 C 0.45491 0.87862 0.54639 0.00000
C604 C 0.39062 0.87126 0.58474 0.00000
O605 O 0.46484 0.87964 0.57427 0.00000
C606 C 0.44229 0.87653 0.59071 0.00000
O607 O 0.42499 0.87561 0.54661 0.00000
C608 C 0.38892 0.87276 0.61493 0.00000
C609 C 0.41222 0.87588 0.63014 0.00000
H610 H 0.05024 0.57200 0.57157 0.00000
H611 H 0.04412 0.59910 0.59126 0.00000
H612 H 0.16726 0.62256 0.56549 0.00000
H613 H 0.17028 0.59317 0.60240 0.00000
C614 C 0.12896 0.58489 0.60898 0.00000
C615 C 0.10121 0.60607 0.57172 0.00000
C616 C 0.05927 0.58792 0.58190 0.00000
C617 C 0.12374 0.61968 0.55972 0.00000
O618 O 0.07803 0.57736 0.60223 0.00000
C619 C 0.10311 0.58844 0.59621 0.00000
O620 O 0.07435 0.60536 0.56258 0.00000
C621 C 0.15047 0.61411 0.57281 0.00000
C622 C 0.15191 0.59726 0.59513 0.00000
H623 H 0.46123 0.09339 0.54276 0.00000
H624 H 0.46490 0.12671 0.53677 0.00000
H625 H 0.37584 0.13419 0.62838 0.00000
H626 H 0.34964 0.12747 0.58960 0.00000
C627 C 0.38032 0.12356 0.56023 0.00000
C628 C 0.42591 0.12297 0.58321 0.00000
C629 C 0.45302 0.11236 0.54654 0.00000
C630 C 0.41517 0.12870 0.60945 0.00000
O631 O 0.42528 0.11355 0.53626 0.00000
C632 C 0.40909 0.12013 0.55823 0.00000
O633 O 0.45289 0.11769 0.57613 0.00000
C634 C 0.38498 0.13056 0.61076 0.00000
C635 C 0.36971 0.12729 0.58752 0.00000
H636 H 0.43850 0.05928 0.44059 0.00000
H637 H 0.41953 0.04597 0.41564 0.00000
H638 H 0.42893 0.16516 0.36999 0.00000
H639 H 0.39219 0.16872 0.39954 0.00000
C640 C 0.39110 0.12907 0.41520 0.00000
C641 C 0.43145 0.10289 0.39808 0.00000
C642 C 0.42695 0.06394 0.42367 0.00000
C643 C 0.44031 0.12394 0.38033 0.00000
O644 O 0.40445 0.08157 0.43139 0.00000
C645 C 0.40707 0.10482 0.41587 0.00000
O646 O 0.44399 0.07795 0.40324 0.00000
C647 C 0.42392 0.14937 0.38151 0.00000
C648 C 0.40175 0.15098 0.39854 0.00000
H649 H 0.58574 0.95496 0.58196 0.00000
H650 H 0.56086 0.94147 0.56301 0.00000
H651 H 0.60723 0.83292 0.61249 0.00000
H652 H 0.63548 0.83969 0.57519 0.00000
C653 C 0.62016 0.87672 0.56060 0.00000
C654 C 0.58520 0.89469 0.59318 0.00000
C655 C 0.57797 0.93696 0.57439 0.00000
C656 C 0.58549 0.87109 0.60990 0.00000
O657 O 0.59819 0.92366 0.55733 0.00000
C658 C 0.60233 0.89824 0.56852 0.00000
O659 O 0.57058 0.91871 0.59711 0.00000
C660 C 0.60550 0.84989 0.60171 0.00000
C661 C 0.62161 0.85380 0.57914 0.00000
H662 H 0.33485 0.62536 0.83535 0.00000
H663 H 0.35095 0.61040 0.80934 0.00000
H664 H 0.41060 0.54994 0.90507 0.00000
H665 H 0.43585 0.58973 0.90121 0.00000
C666 C 0.41417 0.60957 0.87031 0.00000
C667 C 0.37208 0.58289 0.85921 0.00000
C668 C 0.35109 0.61306 0.83020 0.00000
C669 C 0.37898 0.56070 0.87644 0.00000
O670 O 0.37645 0.62587 0.83856 0.00000
C671 C 0.38909 0.60765 0.85577 0.00000
O672 O 0.34844 0.58642 0.84389 0.00000
C673 C 0.40449 0.56434 0.89233 0.00000
C674 C 0.41968 0.58767 0.88931 0.00000
H675 H 0.66787 0.62825 0.15585 0.00000
H676 H 0.66959 0.63375 0.12228 0.00000
H677 H 0.55399 0.57897 0.12602 0.00000
H678 H 0.58268 0.54145 0.12397 0.00000
C679 C 0.62067 0.56084 0.12439 0.00000
C680 C 0.61414 0.61091 0.13195 0.00000
C681 C 0.65879 0.62389 0.13740 0.00000
C682 C 0.58529 0.60958 0.13041 0.00000
O683 O 0.65918 0.59467 0.13265 0.00000
C684 C 0.63241 0.58697 0.12918 0.00000
O685 O 0.63032 0.63356 0.13753 0.00000
C686 C 0.57395 0.58172 0.12696 0.00000
C687 C 0.59118 0.55972 0.12501 0.00000
H688 H 0.46424 0.53612 0.13810 0.00000
H689 H 0.45937 0.54733 0.16989 0.00000
H690 H 0.37195 0.62004 0.11115 0.00000
H691 H 0.41142 0.64544 0.10546 0.00000
C692 C 0.43988 0.61959 0.12391 0.00000
C693 C 0.41730 0.57551 0.13633 0.00000
C694 C 0.45486 0.55095 0.14966 0.00000
C695 C 0.39082 0.58450 0.12894 0.00000
O696 O 0.46483 0.57768 0.14174 0.00000
C697 C 0.44225 0.59243 0.13396 0.00000
O698 O 0.42510 0.54981 0.14550 0.00000
C699 C 0.38962 0.61235 0.11713 0.00000
C700 C 0.41303 0.62750 0.11456 0.00000
H701 H 0.46375 0.46025 0.10389 0.00000
H702 H 0.46370 0.46363 0.13778 0.00000
H703 H 0.37589 0.37100 0.12843 0.00000
H704 H 0.34993 0.40997 0.12191 0.00000
C705 C 0.38035 0.43981 0.12364 0.00000
C706 C 0.42612 0.41732 0.12625 0.00000
C707 C 0.45361 0.45492 0.12151 0.00000
C708 C 0.41527 0.39062 0.12874 0.00000
O709 O 0.42573 0.46485 0.12046 0.00000
C710 C 0.40929 0.44230 0.12352 0.00000
O711 O 0.45339 0.42500 0.12449 0.00000
C712 C 0.38507 0.38892 0.12719 0.00000
C713 C 0.36986 0.41222 0.12408 0.00000
H714 H 0.36620 0.33180 0.89029 0.00000
H715 H 0.36934 0.33018 0.85642 0.00000
H716 H 0.45890 0.41878 0.87898 0.00000
H717 H 0.41952 0.44484 0.87668 0.00000
C718 C 0.39042 0.41423 0.87078 0.00000
C719 C 0.41278 0.36850 0.87473 0.00000
C720 C 0.37483 0.34110 0.87354 0.00000
C721 C 0.43951 0.37934 0.87685 0.00000
O722 O 0.36502 0.36895 0.87132 0.00000
C723 C 0.38782 0.38532 0.87182 0.00000
O724 O 0.40478 0.34131 0.87631 0.00000
C725 C 0.44103 0.40958 0.87723 0.00000
C726 C 0.41763 0.42482 0.87510 0.00000
H727 H 0.54212 0.46232 0.84042 0.00000
H728 H 0.53547 0.46374 0.87379 0.00000
H729 H 0.65086 0.40878 0.88036 0.00000
H730 H 0.62251 0.37155 0.87366 0.00000
C731 C 0.58483 0.39118 0.87005 0.00000
C732 C 0.59194 0.44174 0.86963 0.00000
C733 C 0.54845 0.45568 0.85933 0.00000
C734 C 0.62027 0.43998 0.87519 0.00000
O735 O 0.54763 0.42610 0.86040 0.00000
C736 C 0.57368 0.41780 0.86679 0.00000
O737 O 0.57655 0.46504 0.86453 0.00000
C738 C 0.63122 0.41180 0.87686 0.00000
C739 C 0.61410 0.38988 0.87360 0.00000
H740 H 0.92957 0.44670 0.45026 0.00000
H741 H 0.94889 0.42921 0.42833 0.00000
H742 H 0.83850 0.42405 0.36377 0.00000
H743 H 0.83440 0.38741 0.39338 0.00000
C744 C 0.87081 0.39115 0.41526 0.00000
C745 C 0.89462 0.43416 0.40147 0.00000
C746 C 0.92911 0.43453 0.43313 0.00000
C747 C 0.87589 0.44031 0.38031 0.00000
O748 O 0.91316 0.41017 0.43853 0.00000
C749 C 0.89263 0.40989 0.41939 0.00000
O750 O 0.91677 0.44961 0.41023 0.00000
C751 C 0.85267 0.42104 0.37782 0.00000
C752 C 0.85085 0.39899 0.39498 0.00000
H753 H 0.04586 0.42031 0.58263 0.00000
H754 H 0.04542 0.40072 0.61048 0.00000
H755 H 0.16747 0.43876 0.61667 0.00000
H756 H 0.17010 0.40167 0.58747 0.00000
C757 C 0.12890 0.39096 0.58497 0.00000
C758 C 0.10073 0.42583 0.60941 0.00000
C759 C 0.05793 0.41125 0.59725 0.00000
C760 C 0.12360 0.44024 0.61971 0.00000
O761 O 0.07700 0.39259 0.58441 0.00000
C762 C 0.10264 0.40125 0.59190 0.00000
O763 O 0.07325 0.43231 0.61230 0.00000
C764 C 0.15049 0.42967 0.61066 0.00000
C765 C 0.15183 0.40722 0.59396 0.00000
H766 H 0.56444 0.20616 0.58682 0.00000
H767 H 0.54823 0.18919 0.56215 0.00000
H768 H 0.58257 0.08895 0.63394 0.00000
H769 H 0.62112 0.09585 0.60744 0.00000
C770 C 0.60910 0.13023 0.58527 0.00000
C771 C 0.56419 0.14698 0.60283 0.00000
C772 C 0.56084 0.18706 0.57885 0.00000
C773 C 0.56046 0.12467 0.62086 0.00000
O774 O 0.58642 0.17460 0.57065 0.00000
C775 C 0.58827 0.15048 0.58489 0.00000
O776 O 0.54754 0.16973 0.59952 0.00000
C777 C 0.58341 0.10494 0.62166 0.00000
C778 C 0.60582 0.10883 0.60532 0.00000
H779 H 0.94537 0.61448 0.63261 0.00000
H780 H 0.95534 0.59656 0.60542 0.00000
H781 H 0.82928 0.59493 0.58333 0.00000
H782 H 0.83468 0.55828 0.61271 0.00000
C783 C 0.87652 0.56085 0.62054 0.00000
C784 C 0.89528 0.60322 0.59910 0.00000
C785 C 0.93863 0.60242 0.61678 0.00000
C786 C 0.87054 0.61002 0.58575 0.00000
O787 O 0.92486 0.57851 0.62752 0.00000
C788 C 0.89894 0.57892 0.61672 0.00000
O789 O 0.91953 0.61797 0.59953 0.00000
C790 C 0.84736 0.59145 0.59159 0.00000
C791 C 0.85099 0.56937 0.60843 0.00000
H792 H 0.01319 0.42243 0.66364 0.00000
H793 H 0.01352 0.41835 0.69745 0.00000
H794 H 0.96967 0.53853 0.69389 0.00000
H795 H 0.01645 0.54497 0.69161 0.00000
C796 C 0.02974 0.50445 0.69126 0.00000
C797 C 0.98939 0.47332 0.68819 0.00000
C798 C 0.01144 0.43248 0.68202 0.00000
C799 C 0.97001 0.49464 0.69080 0.00000
O800 O 0.03260 0.45307 0.68428 0.00000
C801 C 0.01934 0.47750 0.68819 0.00000
O802 O 0.98449 0.44570 0.68387 0.00000
C803 C 0.98181 0.52249 0.69236 0.00000
C804 C 0.00958 0.52600 0.69175 0.00000
H805 H 0.57749 0.98682 0.33656 0.00000
H806 H 0.58167 0.98647 0.30276 0.00000
H807 H 0.46147 0.03033 0.30600 0.00000
H808 H 0.45503 0.98355 0.30828 0.00000
C809 C 0.49555 0.97026 0.30875 0.00000
C810 C 0.52667 0.01061 0.31187 0.00000
C811 C 0.56749 0.98856 0.31816 0.00000
C812 C 0.50536 0.02999 0.30920 0.00000
O813 O 0.54691 0.96740 0.31585 0.00000
C814 C 0.52249 0.98067 0.31187 0.00000
O815 O 0.55428 0.01551 0.31626 0.00000
C816 C 0.47752 0.01819 0.30757 0.00000
C817 C 0.47400 0.99042 0.30819 0.00000
H818 H 0.98685 0.42242 0.28038 0.00000
H819 H 0.98582 0.41846 0.31419 0.00000
H820 H 0.98409 0.54638 0.31058 0.00000
H821 H 0.03037 0.53702 0.30830 0.00000
C822 C 0.02954 0.49438 0.30796 0.00000
C823 C 0.98118 0.47832 0.30491 0.00000
C824 C 0.98852 0.43249 0.29875 0.00000
C825 C 0.96993 0.50484 0.30750 0.00000
O826 O 0.01529 0.44494 0.30101 0.00000
C827 C 0.01083 0.47238 0.30491 0.00000
O828 O 0.96744 0.45385 0.30060 0.00000
C829 C 0.99025 0.52723 0.30906 0.00000
C830 C 0.01763 0.52138 0.30845 0.00000
H831 H 0.62619 0.44887 0.99134 0.00000
H832 H 0.61143 0.47918 0.99613 0.00000
H833 H 0.73169 0.51970 0.97956 0.00000
H834 H 0.73102 0.50920 0.02565 0.00000
C835 C 0.69121 0.49441 0.02955 0.00000
C836 C 0.66954 0.49148 0.98341 0.00000
C837 C 0.62992 0.46926 0.99476 0.00000
C838 C 0.69167 0.50422 0.96982 0.00000
O839 O 0.64505 0.47263 0.01999 0.00000
C840 C 0.66870 0.48614 0.01316 0.00000
O841 O 0.64593 0.48064 0.97199 0.00000
C842 C 0.71528 0.51105 0.98750 0.00000
C843 C 0.71436 0.50542 0.01492 0.00000
H844 H 0.42246 0.98686 0.71975 0.00000
H845 H 0.41845 0.98582 0.68595 0.00000
H846 H 0.54638 0.98409 0.68935 0.00000
H847 H 0.53702 0.03037 0.69163 0.00000
C848 C 0.49438 0.02954 0.69204 0.00000
C849 C 0.47832 0.98118 0.69513 0.00000
C850 C 0.43250 0.98852 0.70136 0.00000
C851 C 0.50484 0.96993 0.69250 0.00000
O852 O 0.44495 0.01529 0.69908 0.00000
C853 C 0.47239 0.01083 0.69513 0.00000
O854 O 0.45387 0.96744 0.69948 0.00000
C855 C 0.52723 0.99025 0.69090 0.00000
C856 C 0.52138 0.01763 0.69151 0.00000
H857 H 0.23819 0.99239 0.45534 0.00000
H858 H 0.22646 0.99810 0.48680 0.00000
H859 H 0.34975 0.02514 0.50797 0.00000
H860 H 0.34883 0.97818 0.51334 0.00000
C861 C 0.30787 0.97027 0.50452 0.00000
C862 C 0.28527 0.01321 0.48864 0.00000
C863 C 0.24391 0.99582 0.47527 0.00000
C864 C 0.30829 0.02988 0.49403 0.00000
O865 O 0.25970 0.97287 0.48530 0.00000
C866 C 0.28441 0.98338 0.49350 0.00000
O867 O 0.26055 0.02081 0.47694 0.00000
C868 C 0.33273 0.01506 0.50402 0.00000
C869 C 0.33172 0.98734 0.50784 0.00000
H870 H 0.98682 0.66342 0.42252 0.00000
H871 H 0.98647 0.69721 0.41833 0.00000
H872 H 0.03033 0.69401 0.53852 0.00000
H873 H 0.98355 0.69173 0.54497 0.00000
C874 C 0.97026 0.69125 0.50445 0.00000
C875 C 0.01061 0.68812 0.47333 0.00000
C876 C 0.98856 0.68182 0.43251 0.00000
C877 C 0.02999 0.69080 0.49464 0.00000
O878 O 0.96740 0.68413 0.45309 0.00000
C879 C 0.98067 0.68812 0.47751 0.00000
O880 O 0.01551 0.68373 0.44572 0.00000
C881 C 0.01819 0.69244 0.52248 0.00000
C882 C 0.99042 0.69182 0.52600 0.00000
H883 H 0.77512 0.99990 0.50265 0.00000
H884 H 0.76657 0.99371 0.53508 0.00000
H885 H 0.65074 0.97916 0.48262 0.00000
H886 H 0.65295 0.02596 0.48896 0.00000
C887 C 0.69234 0.02967 0.50489 0.00000
C888 C 0.71574 0.98432 0.50316 0.00000
C889 C 0.75891 0.99729 0.51582 0.00000
C890 C 0.69220 0.97009 0.49422 0.00000
O891 O 0.74249 0.02193 0.51594 0.00000
C892 C 0.71657 0.01407 0.50855 0.00000
O893 O 0.74191 0.97406 0.50714 0.00000
C894 C 0.66791 0.98746 0.48920 0.00000
C895 C 0.66924 0.01506 0.49375 0.00000
H896 H 0.01305 0.27874 0.42301 0.00000
H897 H 0.01420 0.31246 0.41836 0.00000
H898 H 0.01592 0.31148 0.54633 0.00000
H899 H 0.96963 0.30917 0.53701 0.00000
C900 C 0.97045 0.30795 0.49439 0.00000
C901 C 0.01881 0.30439 0.47839 0.00000
C902 C 0.01145 0.29732 0.43270 0.00000
C903 C 0.03007 0.30750 0.50486 0.00000
O904 O 0.98468 0.29993 0.44510 0.00000
C905 C 0.98916 0.30438 0.47246 0.00000
O906 O 0.03253 0.29954 0.45403 0.00000
C907 C 0.00976 0.30959 0.52721 0.00000
C908 C 0.98238 0.30895 0.52137 0.00000
H909 H 0.42232 0.66396 0.01321 0.00000
H910 H 0.41837 0.69778 0.01352 0.00000
H911 H 0.53854 0.69372 0.96967 0.00000
H912 H 0.54497 0.69144 0.01645 0.00000
C913 C 0.50445 0.69126 0.02974 0.00000
C914 C 0.47331 0.68829 0.98939 0.00000
C915 C 0.43245 0.68229 0.01145 0.00000
C916 C 0.49464 0.69080 0.97001 0.00000
O917 O 0.45304 0.68449 0.03261 0.00000
C918 C 0.47749 0.68830 0.01934 0.00000
O919 O 0.44567 0.68408 0.98450 0.00000
C920 C 0.52249 0.69226 0.98181 0.00000
C921 C 0.52600 0.69166 0.00958 0.00000
H922 H 0.23151 0.46777 0.00550 0.00000
H923 H 0.22539 0.50074 0.99990 0.00000
H924 H 0.35120 0.50084 0.97607 0.00000
H925 H 0.34986 0.50641 0.02300 0.00000
C926 C 0.30778 0.50461 0.02971 0.00000
C927 C 0.28408 0.49264 0.98611 0.00000
C928 C 0.24058 0.48645 0.00228 0.00000
C929 C 0.30814 0.49405 0.97011 0.00000
O930 O 0.25717 0.49374 0.02570 0.00000
C931 C 0.28319 0.49765 0.01591 0.00000
O932 O 0.25797 0.48524 0.97778 0.00000
C933 C 0.33348 0.49983 0.98565 0.00000
C934 C 0.33233 0.50384 0.01334 0.00000
H935 H 0.57746 0.33666 0.01317 0.00000
H936 H 0.58167 0.30287 0.01353 0.00000
H937 H 0.46148 0.30594 0.96967 0.00000
H938 H 0.45503 0.30823 0.01645 0.00000
C939 C 0.49555 0.30875 0.02974 0.00000
C940 C 0.52666 0.31191 0.98938 0.00000
C941 C 0.56748 0.31825 0.01143 0.00000
C942 C 0.50535 0.30920 0.97001 0.00000
O943 O 0.54690 0.31592 0.03260 0.00000
C944 C 0.52248 0.31191 0.01933 0.00000
O945 O 0.55427 0.31633 0.98448 0.00000
C946 C 0.47752 0.30754 0.98181 0.00000
C947 C 0.47400 0.30815 0.00958 0.00000
H948 H 0.83816 0.53152 0.82817 0.00000
H949 H 0.83741 0.49873 0.83733 0.00000
H950 H 0.76386 0.49035 0.73293 0.00000
H951 H 0.73262 0.50301 0.76608 0.00000
C952 C 0.75843 0.50701 0.79979 0.00000
C953 C 0.80693 0.50141 0.78484 0.00000
C954 C 0.82877 0.51306 0.82459 0.00000
C955 C 0.80001 0.49416 0.75771 0.00000
O956 O 0.79977 0.51529 0.83011 0.00000
C957 C 0.78672 0.50809 0.80632 0.00000
O958 O 0.83283 0.50497 0.79591 0.00000
C959 C 0.77039 0.49484 0.75148 0.00000
C960 C 0.75201 0.50163 0.77149 0.00000
H961 H 0.42829 0.18184 0.20467 0.00000
H962 H 0.41926 0.20385 0.22904 0.00000
H963 H 0.53605 0.25022 0.20476 0.00000
H964 H 0.54531 0.21573 0.23575 0.00000
C965 C 0.50608 0.20013 0.24178 0.00000
C966 C 0.47359 0.22286 0.20962 0.00000
C967 C 0.43539 0.19694 0.21745 0.00000
C968 C 0.49319 0.24166 0.19968 0.00000
O969 O 0.45654 0.18607 0.23509 0.00000
C970 C 0.47936 0.20178 0.23051 0.00000
O971 O 0.44668 0.21957 0.20118 0.00000
C972 C 0.52110 0.23813 0.21088 0.00000
C973 C 0.52618 0.21811 0.22979 0.00000
H974 H 0.82481 0.43522 0.19575 0.00000
H975 H 0.83647 0.46076 0.17649 0.00000
H976 H 0.76630 0.52990 0.25819 0.00000
H977 H 0.73416 0.51690 0.22605 0.00000
C978 C 0.75827 0.49277 0.20045 0.00000
C979 C 0.80473 0.48739 0.22092 0.00000
C980 C 0.82263 0.45568 0.19149 0.00000
C981 C 0.79968 0.50585 0.24261 0.00000
O982 O 0.79509 0.46112 0.18206 0.00000
C983 C 0.78448 0.48029 0.19961 0.00000
O984 O 0.82804 0.47187 0.21624 0.00000
C985 C 0.77159 0.51712 0.24351 0.00000
C986 C 0.75294 0.50985 0.22392 0.00000
H987 H 0.52031 0.83914 0.16735 0.00000
H988 H 0.54996 0.83261 0.18279 0.00000
H989 H 0.48344 0.73296 0.22779 0.00000
H990 H 0.47206 0.76713 0.25841 0.00000
C991 C 0.49341 0.79996 0.24153 0.00000
C992 C 0.51387 0.78583 0.19694 0.00000
C993 C 0.52961 0.82734 0.18204 0.00000
C994 C 0.50614 0.75810 0.19970 0.00000
O995 O 0.51696 0.83223 0.20836 0.00000
C996 C 0.50773 0.80728 0.21735 0.00000
O997 O 0.52688 0.79824 0.17497 0.00000
C998 C 0.48992 0.75178 0.22448 0.00000
C999 C 0.48394 0.77203 0.24286 0.00000
H1000 H 0.17297 0.46609 0.16222 0.00000
H1001 H 0.16308 0.49868 0.16218 0.00000
H1002 H 0.26674 0.51098 0.23624 0.00000
H1003 H 0.23364 0.49829 0.26752 0.00000
C1004 C 0.20022 0.49298 0.24157 0.00000
C1005 C 0.21539 0.49783 0.19306 0.00000
C1006 C 0.17608 0.48483 0.17122 0.00000
C1007 C 0.24231 0.50583 0.20001 0.00000
O1008 O 0.17039 0.48312 0.20023 0.00000
C1009 C 0.19392 0.49113 0.21328 0.00000
O1010 O 0.20459 0.49346 0.16718 0.00000
C1011 C 0.24833 0.50595 0.22968 0.00000
C1012 C 0.22835 0.49912 0.24807 0.00000
H1013 H 0.42303 0.81032 0.78582 0.00000
H1014 H 0.41922 0.78674 0.76154 0.00000
H1015 H 0.53689 0.75450 0.80022 0.00000
H1016 H 0.54577 0.78890 0.76903 0.00000
C1017 C 0.50601 0.79982 0.75815 0.00000
C1018 C 0.47277 0.77452 0.78751 0.00000
C1019 C 0.43311 0.79575 0.77452 0.00000
C1020 C 0.49306 0.75834 0.80028 0.00000
O1021 O 0.45481 0.80841 0.75884 0.00000
C1022 C 0.47853 0.79551 0.76651 0.00000
O1023 O 0.44489 0.77501 0.79283 0.00000
C1024 C 0.52150 0.76465 0.79203 0.00000
C1025 C 0.52647 0.78456 0.77298 0.00000
H1026 H 0.16587 0.83914 0.48415 0.00000
H1027 H 0.16146 0.83348 0.51744 0.00000
H1028 H 0.26846 0.76516 0.50119 0.00000
H1029 H 0.23494 0.73418 0.48885 0.00000
C1030 C 0.20014 0.75847 0.49311 0.00000
C1031 C 0.21405 0.80650 0.50342 0.00000
C1032 C 0.17234 0.82755 0.50044 0.00000
C1033 C 0.24216 0.80012 0.50590 0.00000
O1034 O 0.16755 0.79886 0.49491 0.00000
C1035 C 0.19256 0.78625 0.49692 0.00000
O1036 O 0.20172 0.83201 0.50508 0.00000
C1037 C 0.24924 0.77123 0.50022 0.00000
C1038 C 0.22912 0.75289 0.49366 0.00000
H1039 H 0.72237 0.28165 0.51254 0.00000
H1040 H 0.71847 0.27452 0.47947 0.00000
H1041 H 0.79364 0.17580 0.51082 0.00000
H1042 H 0.82518 0.21000 0.50238 0.00000
C1043 C 0.79903 0.24254 0.49367 0.00000
C1044 C 0.75073 0.22830 0.50213 0.00000
C1045 C 0.72934 0.26961 0.49679 0.00000
C1046 C 0.75752 0.20069 0.50745 0.00000
O1047 O 0.75819 0.27458 0.49233 0.00000
C1048 C 0.77094 0.24975 0.49534 0.00000
O1049 O 0.72519 0.24060 0.50354 0.00000
C1050 C 0.78716 0.19452 0.50700 0.00000
C1051 C 0.80561 0.21478 0.50124 0.00000
H1052 H 0.83033 0.81246 0.44369 0.00000
H1053 H 0.83845 0.82914 0.47224 0.00000
H1054 H 0.76470 0.73843 0.52431 0.00000
H1055 H 0.73285 0.77088 0.51134 0.00000
C1056 C 0.75833 0.79963 0.49282 0.00000
C1057 C 0.80588 0.78119 0.49042 0.00000
C1058 C 0.82584 0.81440 0.46412 0.00000
C1059 C 0.79978 0.75748 0.50582 0.00000
O1060 O 0.79752 0.82240 0.46749 0.00000
C1061 C 0.78566 0.80257 0.48344 0.00000
O1062 O 0.83049 0.78819 0.47811 0.00000
C1063 C 0.77072 0.75457 0.51380 0.00000
C1064 C 0.75217 0.77429 0.50665 0.00000
H1065 H 0.16169 0.17146 0.46937 0.00000
H1066 H 0.17133 0.18928 0.44201 0.00000
H1067 H 0.26545 0.22473 0.52116 0.00000
H1068 H 0.23114 0.25533 0.53221 0.00000
C1069 C 0.20004 0.24155 0.50649 0.00000
C1070 C 0.21488 0.19854 0.48333 0.00000
C1071 C 0.17467 0.18653 0.46259 0.00000
C1072 C 0.24184 0.19967 0.49377 0.00000
O1073 O 0.16927 0.21175 0.47714 0.00000
C1074 C 0.19347 0.21902 0.48938 0.00000
O1075 O 0.20320 0.17826 0.46727 0.00000
C1076 C 0.24724 0.22265 0.51273 0.00000
C1077 C 0.22698 0.24109 0.51854 0.00000
H1078 H 0.26137 0.45202 0.72334 0.00000
H1079 H 0.27602 0.48244 0.71888 0.00000
H1080 H 0.21095 0.50888 0.82587 0.00000
H1081 H 0.17853 0.51669 0.79235 0.00000
C1082 C 0.20079 0.50606 0.75756 0.00000
C1083 C 0.24593 0.48670 0.77148 0.00000
C1084 C 0.26136 0.47202 0.72978 0.00000
C1085 C 0.24218 0.49245 0.79958 0.00000
O1086 O 0.23476 0.48411 0.72499 0.00000
C1087 C 0.22565 0.49309 0.74998 0.00000
O1088 O 0.26769 0.47327 0.75915 0.00000
C1089 C 0.21533 0.50455 0.80665 0.00000
C1090 C 0.19657 0.50978 0.78653 0.00000
H1091 H 0.57074 0.18073 0.79675 0.00000
H1092 H 0.58056 0.20245 0.77243 0.00000
H1093 H 0.46417 0.25092 0.79447 0.00000
H1094 H 0.45485 0.21642 0.76351 0.00000
C1095 C 0.49391 0.20012 0.75823 0.00000
C1096 C 0.52623 0.22248 0.79082 0.00000
C1097 C 0.56411 0.19587 0.78378 0.00000
C1098 C 0.50679 0.24166 0.80033 0.00000
O1099 O 0.54308 0.18526 0.76584 0.00000
C1100 C 0.52046 0.20138 0.76994 0.00000
O1101 O 0.55293 0.21878 0.79973 0.00000
C1102 C 0.47902 0.23854 0.78867 0.00000
C1103 C 0.47392 0.21851 0.76978 0.00000
loop_
_geom_bond_atom_site_label_1
_geom_bond_atom_site_label_2
_geom_bond_distance
_geom_bond_site_symmetry_2
_ccdc_geom_bond_type
Zn0 O5 1.991 . S
Zn0 O6 1.968 . S
Zn0 O12 1.928 . S
Zn0 O13 1.929 . S
Zn1 O11 2.165 . S
Zn1 O13 2.095 . S
Zn1 O15 1.986 . S
Zn1 O16 2.003 . S
Zn2 O4 2.152 . S
Zn2 O13 2.019 . S
Zn2 O14 1.962 . S
Zn2 O17 2.073 . S
C3 O14 1.279 . A
C3 O15 1.276 . A
O4 C10 1.268 . A
O5 C10 1.245 . A
O6 C19 1.278 . A
O7 H18 0.840 . S
O7 C19 1.287 . A
C8 O16 1.272 . A
C8 O17 1.203 . A
C9 O11 1.275 . A
C9 O12 1.272 . A
Zn20 O25 1.991 . S
Zn20 O26 1.968 . S
Zn20 O32 1.928 . S
Zn20 O33 1.929 . S
Zn21 O31 2.165 . S
Zn21 O33 2.095 . S
Zn21 O35 1.986 . S
Zn21 O36 2.003 . S
Zn22 O24 2.152 . S
Zn22 O33 2.019 . S
Zn22 O34 1.962 . S
Zn22 O37 2.073 . S
C23 O34 1.279 . A
C23 O35 1.276 . A
O24 C30 1.268 . A
O25 C30 1.245 . A
O26 C39 1.278 . A
O27 H38 0.840 . S
O27 C39 1.287 . A
C28 O36 1.272 . A
C28 O37 1.203 . A
C29 O31 1.275 . A
C29 O32 1.272 . A
Zn40 O45 1.991 . S
Zn40 O46 1.968 . S
Zn40 O52 1.928 . S
Zn40 O53 1.929 . S
Zn41 O51 2.165 . S
Zn41 O53 2.095 . S
Zn41 O55 1.986 . S
Zn41 O56 2.003 . S
Zn42 O44 2.152 . S
Zn42 O53 2.019 . S
Zn42 O54 1.962 . S
Zn42 O57 2.073 . S
C43 O54 1.279 . A
C43 O55 1.276 . A
O44 C50 1.268 . A
O45 C50 1.245 . A
O46 C59 1.278 . A
O47 H58 0.840 . S
O47 C59 1.287 . A
C48 O56 1.272 . A
C48 O57 1.203 . A
C49 O51 1.275 . A
C49 O52 1.272 . A
Zn60 O65 1.991 . S
Zn60 O66 1.968 . S
Zn60 O72 1.928 . S
Zn60 O73 1.929 . S
Zn61 O71 2.165 . S
Zn61 O73 2.095 . S
Zn61 O75 1.986 . S
Zn61 O76 2.003 . S
Zn62 O64 2.152 . S
Zn62 O73 2.019 . S
Zn62 O74 1.962 . S
Zn62 O77 2.073 . S
C63 O74 1.279 . A
C63 O75 1.276 . A
O64 C70 1.268 . A
O65 C70 1.245 . A
O66 C79 1.278 . A
O67 H78 0.840 . S
O67 C79 1.287 . A
C68 O76 1.272 . A
C68 O77 1.203 . A
C69 O71 1.275 . A
C69 O72 1.272 . A
Zn80 O85 1.991 . S
Zn80 O86 1.968 . S
Zn80 O92 1.928 . S
Zn80 O93 1.929 . S
Zn81 O91 2.165 . S
Zn81 O93 2.095 . S
Zn81 O95 1.986 . S
Zn81 O96 2.003 . S
Zn82 O84 2.152 . S
Zn82 O93 2.019 . S
Zn82 O94 1.962 . S
Zn82 O97 2.073 . S
C83 O94 1.279 . A
C83 O95 1.276 . A
O84 C90 1.268 . A
O85 C90 1.245 . A
O86 C99 1.278 . A
O87 H98 0.840 . S
O87 C99 1.287 . A
C88 O96 1.272 . A
C88 O97 1.203 . A
C89 O91 1.275 . A
C89 O92 1.272 . A
Zn100 O105 1.991 . S
Zn100 O106 1.968 . S
Zn100 O112 1.928 . S
Zn100 O113 1.929 . S
Zn101 O111 2.165 . S
Zn101 O113 2.095 . S
Zn101 O115 1.986 . S
Zn101 O116 2.003 . S
Zn102 O104 2.152 . S
Zn102 O113 2.019 . S
Zn102 O114 1.962 . S
Zn102 O117 2.073 . S
C103 O114 1.279 . A
C103 O115 1.276 . A
O104 C110 1.268 . A
O105 C110 1.245 . A
O106 C119 1.278 . A
O107 H118 0.840 . S
O107 C119 1.287 . A
C108 O116 1.272 . A
C108 O117 1.203 . A
C109 O111 1.275 . A
C109 O112 1.272 . A
Zn120 O125 1.991 . S
Zn120 O126 1.968 . S
Zn120 O132 1.928 . S
Zn120 O133 1.929 . S
Zn121 O131 2.165 . S
Zn121 O133 2.095 . S
Zn121 O135 1.986 . S
Zn121 O136 2.003 . S
Zn122 O124 2.152 . S
Zn122 O133 2.019 . S
Zn122 O134 1.962 . S
Zn122 O137 2.073 . S
C123 O134 1.279 . A
C123 O135 1.276 . A
O124 C130 1.268 . A
O125 C130 1.245 . A
O126 C139 1.278 . A
O127 H138 0.840 . S
O127 C139 1.287 . A
C128 O136 1.272 . A
C128 O137 1.203 . A
C129 O131 1.275 . A
C129 O132 1.272 . A
Zn140 O145 1.991 . S
Zn140 O146 1.968 . S
Zn140 O152 1.928 . S
Zn140 O153 1.929 . S
Zn141 O151 2.165 . S
Zn141 O153 2.095 . S
Zn141 O155 1.986 . S
Zn141 O156 2.003 . S
Zn142 O144 2.152 . S
Zn142 O153 2.019 . S
Zn142 O154 1.962 . S
Zn142 O157 2.073 . S
C143 O154 1.279 . A
C143 O155 1.276 . A
O144 C150 1.268 . A
O145 C150 1.245 . A
O146 C159 1.278 . A
O147 H158 0.840 . S
O147 C159 1.287 . A
C148 O156 1.272 . A
C148 O157 1.203 . A
C149 O151 1.275 . A
C149 O152 1.272 . A
Zn160 O165 1.991 . S
Zn160 O166 1.968 . S
Zn160 O172 1.928 . S
Zn160 O173 1.929 . S
Zn161 O171 2.165 . S
Zn161 O173 2.095 . S
Zn161 O175 1.986 . S
Zn161 O176 2.003 . S
Zn162 O164 2.152 . S
Zn162 O173 2.019 . S
Zn162 O174 1.962 . S
Zn162 O177 2.073 . S
C163 O174 1.279 . A
C163 O175 1.276 . A
O164 C170 1.268 . A
O165 C170 1.245 . A
O166 C179 1.278 . A
O167 H178 0.840 . S
O167 C179 1.287 . A
C168 O176 1.272 . A
C168 O177 1.203 . A
C169 O171 1.275 . A
C169 O172 1.272 . A
Zn180 O185 1.991 . S
Zn180 O186 1.968 . S
Zn180 O192 1.928 . S
Zn180 O193 1.929 . S
Zn181 O191 2.165 . S
Zn181 O193 2.095 . S
Zn181 O195 1.986 . S
Zn181 O196 2.003 . S
Zn182 O184 2.152 . S
Zn182 O193 2.019 . S
Zn182 O194 1.962 . S
Zn182 O197 2.073 . S
C183 O194 1.279 . A
C183 O195 1.276 . A
O184 C190 1.268 . A
O185 C190 1.245 . A
O186 C199 1.278 . A
O187 H198 0.840 . S
O187 C199 1.287 . A
C188 O196 1.272 . A
C188 O197 1.203 . A
C189 O191 1.275 . A
C189 O192 1.272 . A
Zn200 O205 1.991 . S
Zn200 O206 1.968 . S
Zn200 O212 1.928 . S
Zn200 O213 1.929 . S
Zn201 O211 2.165 . S
Zn201 O213 2.095 . S
Zn201 O215 1.986 . S
Zn201 O216 2.003 . S
Zn202 O204 2.152 . S
Zn202 O213 2.019 . S
Zn202 O214 1.962 . S
Zn202 O217 2.073 . S
C203 O214 1.279 . A
C203 O215 1.276 . A
O204 C210 1.268 . A
O205 C210 1.245 . A
O206 C219 1.278 . A
O207 H218 0.840 . S
O207 C219 1.287 . A
C208 O216 1.272 . A
C208 O217 1.203 . A
C209 O211 1.275 . A
C209 O212 1.272 . A
Zn220 O225 1.991 . S
Zn220 O226 1.968 . S
Zn220 O232 1.928 . S
Zn220 O233 1.929 . S
Zn221 O231 2.165 . S
Zn221 O233 2.095 . S
Zn221 O235 1.986 . S
Zn221 O236 2.003 . S
Zn222 O224 2.152 . S
Zn222 O233 2.019 . S
Zn222 O234 1.962 . S
Zn222 O237 2.073 . S
C223 O234 1.279 . A
C223 O235 1.276 . A
O224 C230 1.268 . A
O225 C230 1.245 . A
O226 C239 1.278 . A
O227 H238 0.840 . S
O227 C239 1.287 . A
C228 O236 1.272 . A
C228 O237 1.203 . A
C229 O231 1.275 . A
C229 O232 1.272 . A
Zn240 O245 1.991 . S
Zn240 O246 1.968 . S
Zn240 O252 1.928 . S
Zn240 O253 1.929 . S
Zn241 O251 2.165 . S
Zn241 O253 2.095 . S
Zn241 O255 1.986 . S
Zn241 O256 2.003 . S
Zn242 O244 2.152 . S
Zn242 O253 2.019 . S
Zn242 O254 1.962 . S
Zn242 O257 2.073 . S
C243 O254 1.279 . A
C243 O255 1.276 . A
O244 C250 1.268 . A
O245 C250 1.245 . A
O246 C259 1.278 . A
O247 H258 0.840 . S
O247 C259 1.287 . A
C248 O256 1.272 . A
C248 O257 1.203 . A
C249 O251 1.275 . A
C249 O252 1.272 . A
Zn260 O265 1.991 . S
Zn260 O266 1.968 . S
Zn260 O272 1.928 . S
Zn260 O273 1.929 . S
Zn261 O271 2.165 . S
Zn261 O273 2.095 . S
Zn261 O275 1.986 . S
Zn261 O276 2.003 . S
Zn262 O264 2.152 . S
Zn262 O273 2.019 . S
Zn262 O274 1.962 . S
Zn262 O277 2.073 . S
C263 O274 1.279 . A
C263 O275 1.276 . A
O264 C270 1.268 . A
O265 C270 1.245 . A
O266 C279 1.278 . A
O267 H278 0.840 . S
O267 C279 1.287 . A
C268 O276 1.272 . A
C268 O277 1.203 . A
C269 O271 1.275 . A
C269 O272 1.272 . A
Zn280 O285 1.991 . S
Zn280 O286 1.968 . S
Zn280 O292 1.928 . S
Zn280 O293 1.929 . S
Zn281 O291 2.165 . S
Zn281 O293 2.095 . S
Zn281 O295 1.986 . S
Zn281 O296 2.003 . S
Zn282 O284 2.152 . S
Zn282 O293 2.019 . S
Zn282 O294 1.962 . S
Zn282 O297 2.073 . S
C283 O294 1.279 . A
C283 O295 1.276 . A
O284 C290 1.268 . A
O285 C290 1.245 . A
O286 C299 1.278 . A
O287 H298 0.840 . S
O287 C299 1.287 . A
C288 O296 1.272 . A
C288 O297 1.203 . A
C289 O291 1.275 . A
C289 O292 1.272 . A
Zn300 O305 1.991 . S
Zn300 O306 1.968 . S
Zn300 O312 1.928 . S
Zn300 O313 1.929 . S
Zn301 O311 2.165 . S
Zn301 O313 2.095 . S
Zn301 O315 1.986 . S
Zn301 O316 2.003 . S
Zn302 O304 2.152 . S
Zn302 O313 2.019 . S
Zn302 O314 1.962 . S
Zn302 O317 2.073 . S
C303 O314 1.279 . A
C303 O315 1.276 . A
O304 C310 1.268 . A
O305 C310 1.245 . A
O306 C319 1.278 . A
O307 H318 0.840 . S
O307 C319 1.287 . A
C308 O316 1.272 . A
C308 O317 1.203 . A
C309 O311 1.275 . A
C309 O312 1.272 . A
Zn320 O325 1.991 . S
Zn320 O326 1.968 . S
Zn320 O332 1.928 . S
Zn320 O333 1.929 . S
Zn321 O331 2.165 . S
Zn321 O333 2.095 . S
Zn321 O335 1.986 . S
Zn321 O336 2.003 . S
Zn322 O324 2.152 . S
Zn322 O333 2.019 . S
Zn322 O334 1.962 . S
Zn322 O337 2.073 . S
C323 O334 1.279 . A
C323 O335 1.276 . A
O324 C330 1.268 . A
O325 C330 1.245 . A
O326 C339 1.278 . A
O327 H338 0.840 . S
O327 C339 1.287 . A
C328 O336 1.272 . A
C328 O337 1.203 . A
C329 O331 1.275 . A
C329 O332 1.272 . A
Zn340 O345 1.991 . S
Zn340 O346 1.968 . S
Zn340 O352 1.928 . S
Zn340 O353 1.929 . S
Zn341 O351 2.165 . S
Zn341 O353 2.095 . S
Zn341 O355 1.986 . S
Zn341 O356 2.003 . S
Zn342 O344 2.152 . S
Zn342 O353 2.019 . S
Zn342 O354 1.962 . S
Zn342 O357 2.073 . S
C343 O354 1.279 . A
C343 O355 1.276 . A
O344 C350 1.268 . A
O345 C350 1.245 . A
O346 C359 1.278 . A
O347 H358 0.840 . S
O347 C359 1.287 . A
C348 O356 1.272 . A
C348 O357 1.203 . A
C349 O351 1.275 . A
C349 O352 1.272 . A
Zn360 O365 1.991 . S
Zn360 O366 1.968 . S
Zn360 O372 1.928 . S
Zn360 O373 1.929 . S
Zn361 O371 2.165 . S
Zn361 O373 2.095 . S
Zn361 O375 1.986 . S
Zn361 O376 2.003 . S
Zn362 O364 2.152 . S
Zn362 O373 2.019 . S
Zn362 O374 1.962 . S
Zn362 O377 2.073 . S
C363 O374 1.279 . A
C363 O375 1.276 . A
O364 C370 1.268 . A
O365 C370 1.245 . A
O366 C379 1.278 . A
O367 H378 0.840 . S
O367 C379 1.287 . A
C368 O376 1.272 . A
C368 O377 1.203 . A
C369 O371 1.275 . A
C369 O372 1.272 . A
Zn380 O385 1.991 . S
Zn380 O386 1.968 . S
Zn380 O392 1.928 . S
Zn380 O393 1.929 . S
Zn381 O391 2.165 . S
Zn381 O393 2.095 . S
Zn381 O395 1.986 . S
Zn381 O396 2.003 . S
Zn382 O384 2.152 . S
Zn382 O393 2.019 . S
Zn382 O394 1.962 . S
Zn382 O397 2.073 . S
C383 O394 1.279 . A
C383 O395 1.276 . A
O384 C390 1.268 . A
O385 C390 1.245 . A
O386 C399 1.278 . A
O387 H398 0.840 . S
O387 C399 1.287 . A
C388 O396 1.272 . A
C388 O397 1.203 . A
C389 O391 1.275 . A
C389 O392 1.272 . A
Zn400 O405 1.991 . S
Zn400 O406 1.968 . S
Zn400 O412 1.928 . S
Zn400 O413 1.929 . S
Zn401 O411 2.165 . S
Zn401 O413 2.095 . S
Zn401 O415 1.986 . S
Zn401 O416 2.003 . S
Zn402 O404 2.152 . S
Zn402 O413 2.019 . S
Zn402 O414 1.962 . S
Zn402 O417 2.073 . S
C403 O414 1.279 . A
C403 O415 1.276 . A
O404 C410 1.268 . A
O405 C410 1.245 . A
O406 C419 1.278 . A
O407 H418 0.840 . S
O407 C419 1.287 . A
C408 O416 1.272 . A
C408 O417 1.203 . A
C409 O411 1.275 . A
C409 O412 1.272 . A
Zn420 O425 1.991 . S
Zn420 O426 1.968 . S
Zn420 O432 1.928 . S
Zn420 O433 1.929 . S
Zn421 O431 2.165 . S
Zn421 O433 2.095 . S
Zn421 O435 1.986 . S
Zn421 O436 2.003 . S
Zn422 O424 2.152 . S
Zn422 O433 2.019 . S
Zn422 O434 1.962 . S
Zn422 O437 2.073 . S
C423 O434 1.279 . A
C423 O435 1.276 . A
O424 C430 1.268 . A
O425 C430 1.245 . A
O426 C439 1.278 . A
O427 H438 0.840 . S
O427 C439 1.287 . A
C428 O436 1.272 . A
C428 O437 1.203 . A
C429 O431 1.275 . A
C429 O432 1.272 . A
Zn440 O445 1.991 . S
Zn440 O446 1.968 . S
Zn440 O452 1.928 . S
Zn440 O453 1.929 . S
Zn441 O451 2.165 . S
Zn441 O453 2.095 . S
Zn441 O455 1.986 . S
Zn441 O456 2.003 . S
Zn442 O444 2.152 . S
Zn442 O453 2.019 . S
Zn442 O454 1.962 . S
Zn442 O457 2.073 . S
C443 O454 1.279 . A
C443 O455 1.276 . A
O444 C450 1.268 . A
O445 C450 1.245 . A
O446 C459 1.278 . A
O447 H458 0.840 . S
O447 C459 1.287 . A
C448 O456 1.272 . A
C448 O457 1.203 . A
C449 O451 1.275 . A
C449 O452 1.272 . A
Zn460 O465 1.991 . S
Zn460 O466 1.968 . S
Zn460 O472 1.928 . S
Zn460 O473 1.929 . S
Zn461 O471 2.165 . S
Zn461 O473 2.095 . S
Zn461 O475 1.986 . S
Zn461 O476 2.003 . S
Zn462 O464 2.152 . S
Zn462 O473 2.019 . S
Zn462 O474 1.962 . S
Zn462 O477 2.073 . S
C463 O474 1.279 . A
C463 O475 1.276 . A
O464 C470 1.268 . A
O465 C470 1.245 . A
O466 C479 1.278 . A
O467 H478 0.840 . S
O467 C479 1.287 . A
C468 O476 1.272 . A
C468 O477 1.203 . A
C469 O471 1.275 . A
C469 O472 1.272 . A
H480 C486 0.990 . S
H481 C486 0.991 . S
H482 C491 0.950 . S
H483 C492 0.950 . S
C484 C489 1.368 . A
C484 C492 1.390 . A
C485 C487 1.362 . A
C485 C489 1.424 . A
C485 O490 1.337 . S
C486 O488 1.395 . S
C486 O490 1.416 . S
C487 C491 1.426 . A
O488 C489 1.322 . S
C491 C492 1.319 . A
H493 C499 0.990 . S
H494 C499 0.991 . S
H495 C504 0.950 . S
H496 C505 0.950 . S
C497 C502 1.368 . A
C497 C505 1.390 . A
C498 C500 1.362 . A
C498 C502 1.424 . A
C498 O503 1.337 . S
C499 O501 1.395 . S
C499 O503 1.416 . S
C500 C504 1.426 . A
O501 C502 1.322 . S
C504 C505 1.319 . A
H506 C512 0.990 . S
H507 C512 0.991 . S
H508 C517 0.950 . S
H509 C518 0.950 . S
C510 C515 1.368 . A
C510 C518 1.390 . A
C511 C513 1.362 . A
C511 C515 1.424 . A
C511 O516 1.337 . S
C512 O514 1.395 . S
C512 O516 1.416 . S
C513 C517 1.426 . A
O514 C515 1.322 . S
C517 C518 1.319 . A
H519 C525 0.990 . S
H520 C525 0.991 . S
H521 C530 0.950 . S
H522 C531 0.950 . S
C523 C528 1.368 . A
C523 C531 1.390 . A
C524 C526 1.362 . A
C524 C528 1.424 . A
C524 O529 1.337 . S
C525 O527 1.395 . S
C525 O529 1.416 . S
C526 C530 1.426 . A
O527 C528 1.322 . S
C530 C531 1.319 . A
H532 C538 0.990 . S
H533 C538 0.991 . S
H534 C543 0.950 . S
H535 C544 0.950 . S
C536 C541 1.368 . A
C536 C544 1.390 . A
C537 C539 1.362 . A
C537 C541 1.424 . A
C537 O542 1.337 . S
C538 O540 1.395 . S
C538 O542 1.416 . S
C539 C543 1.426 . A
O540 C541 1.322 . S
C543 C544 1.319 . A
H545 C551 0.990 . S
H546 C551 0.991 . S
H547 C556 0.950 . S
H548 C557 0.950 . S
C549 C554 1.368 . A
C549 C557 1.390 . A
C550 C552 1.362 . A
C550 C554 1.424 . A
C550 O555 1.337 . S
C551 O553 1.395 . S
C551 O555 1.416 . S
C552 C556 1.426 . A
O553 C554 1.322 . S
C556 C557 1.319 . A
H558 C564 0.990 . S
H559 C564 0.991 . S
H560 C569 0.950 . S
H561 C570 0.950 . S
C562 C567 1.368 . A
C562 C570 1.390 . A
C563 C565 1.362 . A
C563 C567 1.424 . A
C563 O568 1.337 . S
C564 O566 1.395 . S
C564 O568 1.416 . S
C565 C569 1.426 . A
O566 C567 1.322 . S
C569 C570 1.319 . A
H571 C577 0.990 . S
H572 C577 0.991 . S
H573 C582 0.950 . S
H574 C583 0.950 . S
C575 C580 1.368 . A
C575 C583 1.390 . A
C576 C578 1.362 . A
C576 C580 1.424 . A
C576 O581 1.337 . S
C577 O579 1.395 . S
C577 O581 1.416 . S
C578 C582 1.426 . A
O579 C580 1.322 . S
C582 C583 1.319 . A
H584 C590 0.990 . S
H585 C590 0.991 . S
H586 C595 0.950 . S
H587 C596 0.950 . S
C588 C593 1.368 . A
C588 C596 1.390 . A
C589 C591 1.362 . A
C589 C593 1.424 . A
C589 O594 1.337 . S
C590 O592 1.395 . S
C590 O594 1.416 . S
C591 C595 1.426 . A
O592 C593 1.322 . S
C595 C596 1.319 . A
H597 C603 0.990 . S
H598 C603 0.991 . S
H599 C608 0.950 . S
H600 C609 0.950 . S
C601 C606 1.368 . A
C601 C609 1.390 . A
C602 C604 1.362 . A
C602 C606 1.424 . A
C602 O607 1.337 . S
C603 O605 1.395 . S
C603 O607 1.416 . S
C604 C608 1.426 . A
O605 C606 1.322 . S
C608 C609 1.319 . A
H610 C616 0.990 . S
H611 C616 0.991 . S
H612 C621 0.950 . S
H613 C622 0.950 . S
C614 C619 1.368 . A
C614 C622 1.390 . A
C615 C617 1.362 . A
C615 C619 1.424 . A
C615 O620 1.337 . S
C616 O618 1.395 . S
C616 O620 1.416 . S
C617 C621 1.426 . A
O618 C619 1.322 . S
C621 C622 1.319 . A
H623 C629 0.990 . S
H624 C629 0.991 . S
H625 C634 0.950 . S
H626 C635 0.950 . S
C627 C632 1.368 . A
C627 C635 1.390 . A
C628 C630 1.362 . A
C628 C632 1.424 . A
C628 O633 1.337 . S
C629 O631 1.395 . S
C629 O633 1.416 . S
C630 C634 1.426 . A
O631 C632 1.322 . S
C634 C635 1.319 . A
H636 C642 0.990 . S
H637 C642 0.991 . S
H638 C647 0.950 . S
H639 C648 0.950 . S
C640 C645 1.368 . A
C640 C648 1.390 . A
C641 C643 1.362 . A
C641 C645 1.424 . A
C641 O646 1.337 . S
C642 O644 1.395 . S
C642 O646 1.416 . S
C643 C647 1.426 . A
O644 C645 1.322 . S
C647 C648 1.319 . A
H649 C655 0.990 . S
H650 C655 0.991 . S
H651 C660 0.950 . S
H652 C661 0.950 . S
C653 C658 1.368 . A
C653 C661 1.390 . A
C654 C656 1.362 . A
C654 C658 1.424 . A
C654 O659 1.337 . S
C655 O657 1.395 . S
C655 O659 1.416 . S
C656 C660 1.426 . A
O657 C658 1.322 . S
C660 C661 1.319 . A
H662 C668 0.990 . S
H663 C668 0.991 . S
H664 C673 0.950 . S
H665 C674 0.950 . S
C666 C671 1.368 . A
C666 C674 1.390 . A
C667 C669 1.362 . A
C667 C671 1.424 . A
C667 O672 1.337 . S
C668 O670 1.395 . S
C668 O672 1.416 . S
C669 C673 1.426 . A
O670 C671 1.322 . S
C673 C674 1.319 . A
H675 C681 0.990 . S
H676 C681 0.991 . S
H677 C686 0.950 . S
H678 C687 0.950 . S
C679 C684 1.368 . A
C679 C687 1.390 . A
C680 C682 1.362 . A
C680 C684 1.424 . A
C680 O685 1.337 . S
C681 O683 1.395 . S
C681 O685 1.416 . S
C682 C686 1.426 . A
O683 C684 1.322 . S
C686 C687 1.319 . A
H688 C694 0.990 . S
H689 C694 0.991 . S
H690 C699 0.950 . S
H691 C700 0.950 . S
C692 C697 1.368 . A
C692 C700 1.390 . A
C693 C695 1.362 . A
C693 C697 1.424 . A
C693 O698 1.337 . S
C694 O696 1.395 . S
C694 O698 1.416 . S
C695 C699 1.426 . A
O696 C697 1.322 . S
C699 C700 1.319 . A
H701 C707 0.990 . S
H702 C707 0.991 . S
H703 C712 0.950 . S
H704 C713 0.950 . S
C705 C710 1.368 . A
C705 C713 1.390 . A
C706 C708 1.362 . A
C706 C710 1.424 . A
C706 O711 1.337 . S
C707 O709 1.395 . S
C707 O711 1.416 . S
C708 C712 1.426 . A
O709 C710 1.322 . S
C712 C713 1.319 . A
H714 C720 0.990 . S
H715 C720 0.991 . S
H716 C725 0.950 . S
H717 C726 0.950 . S
C718 C723 1.368 . A
C718 C726 1.390 . A
C719 C721 1.362 . A
C719 C723 1.424 . A
C719 O724 1.337 . S
C720 O722 1.395 . S
C720 O724 1.416 . S
C721 C725 1.426 . A
O722 C723 1.322 . S
C725 C726 1.319 . A
H727 C733 0.990 . S
H728 C733 0.991 . S
H729 C738 0.950 . S
H730 C739 0.950 . S
C731 C736 1.368 . A
C731 C739 1.390 . A
C732 C734 1.362 . A
C732 C736 1.424 . A
C732 O737 1.337 . S
C733 O735 1.395 . S
C733 O737 1.416 . S
C734 C738 1.426 . A
O735 C736 1.322 . S
C738 C739 1.319 . A
H740 C746 0.990 . S
H741 C746 0.991 . S
H742 C751 0.950 . S
H743 C752 0.950 . S
C744 C749 1.368 . A
C744 C752 1.390 . A
C745 C747 1.362 . A
C745 C749 1.424 . A
C745 O750 1.337 . S
C746 O748 1.395 . S
C746 O750 1.416 . S
C747 C751 1.426 . A
O748 C749 1.322 . S
C751 C752 1.319 . A
H753 C759 0.990 . S
H754 C759 0.991 . S
H755 C764 0.950 . S
H756 C765 0.950 . S
C757 C762 1.368 . A
C757 C765 1.390 . A
C758 C760 1.362 . A
C758 C762 1.424 . A
C758 O763 1.337 . S
C759 O761 1.395 . S
C759 O763 1.416 . S
C760 C764 1.426 . A
O761 C762 1.322 . S
C764 C765 1.319 . A
H766 C772 0.990 . S
H767 C772 0.991 . S
H768 C777 0.950 . S
H769 C778 0.950 . S
C770 C775 1.368 . A
C770 C778 1.390 . A
C771 C773 1.362 . A
C771 C775 1.424 . A
C771 O776 1.337 . S
C772 O774 1.395 . S
C772 O776 1.416 . S
C773 C777 1.426 . A
O774 C775 1.322 . S
C777 C778 1.319 . A
H779 C785 0.990 . S
H780 C785 0.991 . S
H781 C790 0.950 . S
H782 C791 0.950 . S
C783 C788 1.368 . A
C783 C791 1.390 . A
C784 C786 1.362 . A
C784 C788 1.424 . A
C784 O789 1.337 . S
C785 O787 1.395 . S
C785 O789 1.416 . S
C786 C790 1.426 . A
O787 C788 1.322 . S
C790 C791 1.319 . A
H792 C798 0.990 . S
H793 C798 0.991 . S
H794 C803 0.950 . S
H795 C804 0.950 . S
C796 C801 1.368 . A
C796 C804 1.390 . A
C797 C799 1.362 . A
C797 C801 1.424 1_655 A
C797 O802 1.337 . S
C798 O800 1.395 . S
C798 O802 1.416 1_455 S
C799 C803 1.426 . A
O800 C801 1.322 . S
C803 C804 1.319 1_655 A
H805 C811 0.990 . S
H806 C811 0.991 . S
H807 C816 0.950 . S
H808 C817 0.950 . S
C809 C814 1.368 . A
C809 C817 1.390 . A
C810 C812 1.362 . A
C810 C814 1.424 1_545 A
C810 O815 1.337 . S
C811 O813 1.395 . S
C811 O815 1.416 1_565 S
C812 C816 1.426 . A
O813 C814 1.322 . S
C816 C817 1.319 1_545 A
H818 C824 0.990 . S
H819 C824 0.991 . S
H820 C829 0.950 . S
H821 C830 0.950 . S
C822 C827 1.368 . A
C822 C830 1.390 . A
C823 C825 1.362 . A
C823 C827 1.424 1_655 A
C823 O828 1.337 . S
C824 O826 1.395 1_655 S
C824 O828 1.416 . S
C825 C829 1.426 . A
O826 C827 1.322 . S
C829 C830 1.319 1_655 A
H831 C837 0.990 . S
H832 C837 0.991 . S
H833 C842 0.950 . S
H834 C843 0.950 . S
C835 C840 1.368 . A
C835 C843 1.390 . A
C836 C838 1.362 . A
C836 C840 1.424 1_556 A
C836 O841 1.337 . S
C837 O839 1.395 1_556 S
C837 O841 1.416 . S
C838 C842 1.426 . A
O839 C840 1.322 . S
C842 C843 1.319 1_556 A
H844 C850 0.990 . S
H845 C850 0.991 . S
H846 C855 0.950 . S
H847 C856 0.950 . S
C848 C853 1.368 . A
C848 C856 1.390 . A
C849 C851 1.362 . A
C849 C853 1.424 1_565 A
C849 O854 1.337 . S
C850 O852 1.395 1_565 S
C850 O854 1.416 . S
C851 C855 1.426 . A
O852 C853 1.322 . S
C855 C856 1.319 1_565 A
H857 C863 0.990 . S
H858 C863 0.991 . S
H859 C868 0.950 . S
H860 C869 0.950 . S
C861 C866 1.368 . A
C861 C869 1.390 . A
C862 C864 1.362 . A
C862 C866 1.424 1_545 A
C862 O867 1.337 . S
C863 O865 1.395 . S
C863 O867 1.416 1_565 S
C864 C868 1.426 . A
O865 C866 1.322 . S
C868 C869 1.319 1_545 A
H870 C876 0.990 . S
H871 C876 0.991 . S
H872 C881 0.950 . S
H873 C882 0.950 . S
C874 C879 1.368 . A
C874 C882 1.390 . A
C875 C877 1.362 . A
C875 C879 1.424 1_455 A
C875 O880 1.337 . S
C876 O878 1.395 . S
C876 O880 1.416 1_655 S
C877 C881 1.426 . A
O878 C879 1.322 . S
C881 C882 1.319 1_455 A
H883 C889 0.991 . S
H884 C889 0.991 . S
H885 C894 0.950 . S
H886 C895 0.950 . S
C887 C892 1.368 . A
C887 C895 1.390 . A
C888 C890 1.362 . A
C888 C892 1.424 1_565 A
C888 O893 1.337 . S
C889 O891 1.395 1_565 S
C889 O893 1.416 . S
C890 C894 1.426 . A
O891 C892 1.322 . S
C894 C895 1.319 1_565 A
H896 C902 0.990 . S
H897 C902 0.991 . S
H898 C907 0.950 . S
H899 C908 0.950 . S
C900 C905 1.368 . A
C900 C908 1.390 . A
C901 C903 1.362 . A
C901 C905 1.424 1_455 A
C901 O906 1.337 . S
C902 O904 1.395 1_455 S
C902 O906 1.416 . S
C903 C907 1.426 . A
O904 C905 1.322 . S
C907 C908 1.319 1_455 A
H909 C915 0.990 . S
H910 C915 0.991 . S
H911 C920 0.950 . S
H912 C921 0.950 . S
C913 C918 1.368 . A
C913 C921 1.390 . A
C914 C916 1.362 . A
C914 C918 1.424 1_556 A
C914 O919 1.337 . S
C915 O917 1.395 . S
C915 O919 1.416 1_554 S
C916 C920 1.426 . A
O917 C918 1.322 . S
C920 C921 1.319 1_556 A
H922 C928 0.990 . S
H923 C928 0.989 1_556 S
H924 C933 0.950 . S
H925 C934 0.950 . S
C926 C931 1.368 . A
C926 C934 1.390 . A
C927 C929 1.362 . A
C927 C931 1.424 1_556 A
C927 O932 1.337 . S
C928 O930 1.395 . S
C928 O932 1.416 1_554 S
C929 C933 1.426 . A
O930 C931 1.322 . S
C933 C934 1.319 1_556 A
H935 C941 0.990 . S
H936 C941 0.991 . S
H937 C946 0.950 . S
H938 C947 0.950 . S
C939 C944 1.368 . A
C939 C947 1.390 . A
C940 C942 1.362 . A
C940 C944 1.424 1_556 A
C940 O945 1.337 . S
C941 O943 1.395 . S
C941 O945 1.416 1_554 S
C942 C946 1.426 . A
O943 C944 1.322 . S
C946 C947 1.319 1_556 A
H948 C954 0.990 . S
H949 C954 0.991 . S
H950 C959 0.950 . S
H951 C960 0.950 . S
C952 C957 1.368 . A
C952 C960 1.390 . A
C953 C955 1.362 . A
C953 C957 1.424 . A
C953 O958 1.337 . S
C954 O956 1.395 . S
C954 O958 1.416 . S
C955 C959 1.426 . A
O956 C957 1.322 . S
C959 C960 1.319 . A
H961 C967 0.990 . S
H962 C967 0.991 . S
H963 C972 0.950 . S
H964 C973 0.950 . S
C965 C970 1.368 . A
C965 C973 1.390 . A
C966 C968 1.362 . A
C966 C970 1.424 . A
C966 O971 1.337 . S
C967 O969 1.395 . S
C967 O971 1.416 . S
C968 C972 1.426 . A
O969 C970 1.322 . S
C972 C973 1.319 . A
H974 C980 0.990 . S
H975 C980 0.991 . S
H976 C985 0.950 . S
H977 C986 0.950 . S
C978 C983 1.368 . A
C978 C986 1.390 . A
C979 C981 1.362 . A
C979 C983 1.424 . A
C979 O984 1.337 . S
C980 O982 1.395 . S
C980 O984 1.416 . S
C981 C985 1.426 . A
O982 C983 1.322 . S
C985 C986 1.319 . A
H987 C993 0.990 . S
H988 C993 0.991 . S
H989 C998 0.950 . S
H990 C999 0.950 . S
C991 C996 1.368 . A
C991 C999 1.390 . A
C992 C994 1.362 . A
C992 C996 1.424 . A
C992 O997 1.337 . S
C993 O995 1.395 . S
C993 O997 1.416 . S
C994 C998 1.426 . A
O995 C996 1.322 . S
C998 C999 1.319 . A
H1000 C1006 0.990 . S
H1001 C1006 0.991 . S
H1002 C1011 0.950 . S
H1003 C1012 0.950 . S
C1004 C1009 1.368 . A
C1004 C1012 1.390 . A
C1005 C1007 1.362 . A
C1005 C1009 1.424 . A
C1005 O1010 1.337 . S
C1006 O1008 1.395 . S
C1006 O1010 1.416 . S
C1007 C1011 1.426 . A
O1008 C1009 1.322 . S
C1011 C1012 1.319 . A
H1013 C1019 0.990 . S
H1014 C1019 0.991 . S
H1015 C1024 0.950 . S
H1016 C1025 0.950 . S
C1017 C1022 1.368 . A
C1017 C1025 1.390 . A
C1018 C1020 1.362 . A
C1018 C1022 1.424 . A
C1018 O1023 1.337 . S
C1019 O1021 1.395 . S
C1019 O1023 1.416 . S
C1020 C1024 1.426 . A
O1021 C1022 1.322 . S
C1024 C1025 1.319 . A
H1026 C1032 0.990 . S
H1027 C1032 0.991 . S
H1028 C1037 0.950 . S
H1029 C1038 0.950 . S
C1030 C1035 1.368 . A
C1030 C1038 1.390 . A
C1031 C1033 1.362 . A
C1031 C1035 1.424 . A
C1031 O1036 1.337 . S
C1032 O1034 1.395 . S
C1032 O1036 1.416 . S
C1033 C1037 1.426 . A
O1034 C1035 1.322 . S
C1037 C1038 1.319 . A
H1039 C1045 0.990 . S
H1040 C1045 0.991 . S
H1041 C1050 0.950 . S
H1042 C1051 0.950 . S
C1043 C1048 1.368 . A
C1043 C1051 1.390 . A
C1044 C1046 1.362 . A
C1044 C1048 1.424 . A
C1044 O1049 1.337 . S
C1045 O1047 1.395 . S
C1045 O1049 1.416 . S
C1046 C1050 1.426 . A
O1047 C1048 1.322 . S
C1050 C1051 1.319 . A
H1052 C1058 0.990 . S
H1053 C1058 0.991 . S
H1054 C1063 0.950 . S
H1055 C1064 0.950 . S
C1056 C1061 1.368 . A
C1056 C1064 1.390 . A
C1057 C1059 1.362 . A
C1057 C1061 1.424 . A
C1057 O1062 1.337 . S
C1058 O1060 1.395 . S
C1058 O1062 1.416 . S
C1059 C1063 1.426 . A
O1060 C1061 1.322 . S
C1063 C1064 1.319 . A
H1065 C1071 0.990 . S
H1066 C1071 0.991 . S
H1067 C1076 0.950 . S
H1068 C1077 0.950 . S
C1069 C1074 1.368 . A
C1069 C1077 1.390 . A
C1070 C1072 1.362 . A
C1070 C1074 1.424 . A
C1070 O1075 1.337 . S
C1071 O1073 1.395 . S
C1071 O1075 1.416 . S
C1072 C1076 1.426 . A
O1073 C1074 1.322 . S
C1076 C1077 1.319 . A
H1078 C1084 0.990 . S
H1079 C1084 0.991 . S
H1080 C1089 0.950 . S
H1081 C1090 0.950 . S
C1082 C1087 1.368 . A
C1082 C1090 1.390 . A
C1083 C1085 1.362 . A
C1083 C1087 1.424 . A
C1083 O1088 1.337 . S
C1084 O1086 1.395 . S
C1084 O1088 1.416 . S
C1085 C1089 1.426 . A
O1086 C1087 1.322 . S
C1089 C1090 1.319 . A
H1091 C1097 0.990 . S
H1092 C1097 0.991 . S
H1093 C1102 0.950 . S
H1094 C1103 0.950 . S
C1095 C1100 1.368 . A
C1095 C1103 1.390 . A
C1096 C1098 1.362 . A
C1096 C1100 1.424 . A
C1096 O1101 1.337 . S
C1097 O1099 1.395 . S
C1097 O1101 1.416 . S
C1098 C1102 1.426 . A
O1099 C1100 1.322 . S
C1102 C1103 1.319 . A
C484 C299 1.379 . S
C487 C9 1.434 . S
C497 C29 1.456 . S
C500 C219 1.382 . S
C510 C239 1.383 . S
C513 C49 1.431 . S
C523 C179 1.394 . S
C526 C69 1.432 . S
C536 C259 1.377 . S
C539 C89 1.437 . S
C549 C319 1.387 . S
C552 C109 1.431 . S
C562 C379 1.383 . S
C565 C129 1.431 . S
C575 C429 1.460 . S
C578 C79 1.363 . S
C588 C189 1.455 . S
C591 C99 1.382 . S
C601 C159 1.387 . S
C604 C169 1.431 . S
C614 C449 1.450 . S
C617 C199 1.366 . S
C627 C279 1.389 . S
C630 C469 1.431 . S
C640 C269 1.451 . S
C643 C39 1.364 . S
C653 C439 1.396 . S
C656 C149 1.435 . S
C666 C309 1.459 . S
C669 C399 1.380 . S
C679 C139 1.387 . S
C682 C329 1.445 . S
C692 C339 1.383 . S
C695 C349 1.431 . S
C705 C359 1.387 . S
C708 C369 1.431 . S
C718 C389 1.455 . S
C721 C419 1.382 . S
C731 C409 1.457 . S
C734 C119 1.358 . S
C744 C289 1.451 . S
C747 C59 1.362 . S
C757 C249 1.450 . S
C760 C459 1.368 . S
C770 C209 1.461 . S
C773 C479 1.365 . S
C783 C19 1.397 . S
C786 C229 1.440 . S
C796 C450 1.472 . S
C799 C10 1.457 . S
C809 C70 1.472 . S
C812 C30 1.457 . S
C822 C90 1.480 . S
C825 C50 1.459 . S
C835 C130 1.477 . S
C838 C110 1.454 . S
C848 C470 1.480 . S
C851 C150 1.459 . S
C861 C170 1.475 . S
C864 C270 1.462 . S
C874 C230 1.472 . S
C877 C190 1.457 . S
C887 C210 1.477 . S
C890 C430 1.463 . S
C900 C290 1.480 . S
C903 C250 1.459 . S
C913 C330 1.472 . S
C916 C310 1.457 . S
C926 C350 1.476 . S
C929 C390 1.462 . S
C939 C370 1.472 . S
C942 C410 1.457 . S
C952 C108 1.394 . S
C955 C8 1.384 . S
C965 C28 1.399 . S
C968 C368 1.376 . S
C978 C128 1.393 . S
C981 C48 1.385 . S
C991 C68 1.395 . S
C994 C328 1.381 . S
C1004 C88 1.393 . S
C1007 C348 1.384 . S
C1017 C148 1.400 . S
C1020 C308 1.375 . S
C1030 C188 1.394 . S
C1033 C168 1.383 . S
C1043 C288 1.402 . S
C1046 C208 1.377 . S
C1056 C428 1.393 . S
C1059 C228 1.385 . S
C1069 C248 1.396 . S
C1072 C268 1.380 . S
C1082 C448 1.402 . S
C1085 C388 1.375 . S
C1095 C468 1.399 . S
C1098 C408 1.376 . S
