# Generated by pormake.
# Topology lta, (4)-cn, num edge types: 1
# Building blocks:
#     Node 0, Type 0, BuildingBlock: N446, # of connection points: 7
#     Node 1, Type 0, BuildingBlock: N446, # of connection points: 7
#     Node 2, Type 0, BuildingBlock: N446, # of connection points: 7
#     Node 3, Type 0, BuildingBlock: N446, # of connection points: 7
#     Node 4, Type 0, BuildingBlock: N446, # of connection points: 7
#     Node 5, Type 0, BuildingBlock: N446, # of connection points: 7
#     Node 6, Type 0, BuildingBlock: N446, # of connection points: 7
#     Node 7, Type 0, BuildingBlock: N446, # of connection points: 7
#     Node 8, Type 0, BuildingBlock: N446, # of connection points: 7
#     Node 9, Type 0, BuildingBlock: N446, # of connection points: 7
#     Node 10, Type 0, BuildingBlock: N446, # of connection points: 7
#     Node 11, Type 0, BuildingBlock: N446, # of connection points: 7
#     Node 12, Type 0, BuildingBlock: N446, # of connection points: 7
#     Node 13, Type 0, BuildingBlock: N446, # of connection points: 7
#     Node 14, Type 0, BuildingBlock: N446, # of connection points: 7
#     Node 15, Type 0, BuildingBlock: N446, # of connection points: 7
#     Node 16, Type 0, BuildingBlock: N446, # of connection points: 7
#     Node 17, Type 0, BuildingBlock: N446, # of connection points: 7
#     Node 18, Type 0, BuildingBlock: N446, # of connection points: 7
#     Node 19, Type 0, BuildingBlock: N446, # of connection points: 7
#     Node 20, Type 0, BuildingBlock: N446, # of connection points: 7
#     Node 21, Type 0, BuildingBlock: N446, # of connection points: 7
#     Node 22, Type 0, BuildingBlock: N446, # of connection points: 7
#     Node 23, Type 0, BuildingBlock: N446, # of connection points: 7
#     Edge 24, Type (0, 0), BuildingBlock: E120, # of connection points: 2
#     Edge 25, Type (0, 0), BuildingBlock: E120, # of connection points: 2
#     Edge 26, Type (0, 0), BuildingBlock: E120, # of connection points: 2
#     Edge 27, Type (0, 0), BuildingBlock: E120, # of connection points: 2
#     Edge 28, Type (0, 0), BuildingBlock: E120, # of connection points: 2
#     Edge 29, Type (0, 0), BuildingBlock: E120, # of connection points: 2
#     Edge 30, Type (0, 0), BuildingBlock: E120, # of connection points: 2
#     Edge 31, Type (0, 0), BuildingBlock: E120, # of connection points: 2
#     Edge 32, Type (0, 0), BuildingBlock: E120, # of connection points: 2
#     Edge 33, Type (0, 0), BuildingBlock: E120, # of connection points: 2
#     Edge 34, Type (0, 0), BuildingBlock: E120, # of connection points: 2
#     Edge 35, Type (0, 0), BuildingBlock: E120, # of connection points: 2
#     Edge 36, Type (0, 0), BuildingBlock: E120, # of connection points: 2
#     Edge 37, Type (0, 0), BuildingBlock: E120, # of connection points: 2
#     Edge 38, Type (0, 0), BuildingBlock: E120, # of connection points: 2
#     Edge 39, Type (0, 0), BuildingBlock: E120, # of connection points: 2
#     Edge 40, Type (0, 0), BuildingBlock: E120, # of connection points: 2
#     Edge 41, Type (0, 0), BuildingBlock: E120, # of connection points: 2
#     Edge 42, Type (0, 0), BuildingBlock: E120, # of connection points: 2
#     Edge 43, Type (0, 0), BuildingBlock: E120, # of connection points: 2
#     Edge 44, Type (0, 0), BuildingBlock: E120, # of connection points: 2
#     Edge 45, Type (0, 0), BuildingBlock: E120, # of connection points: 2
#     Edge 46, Type (0, 0), BuildingBlock: E120, # of connection points: 2
#     Edge 47, Type (0, 0), BuildingBlock: E120, # of connection points: 2
#     Edge 48, Type (0, 0), BuildingBlock: E120, # of connection points: 2
#     Edge 49, Type (0, 0), BuildingBlock: E120, # of connection points: 2
#     Edge 50, Type (0, 0), BuildingBlock: E120, # of connection points: 2
#     Edge 51, Type (0, 0), BuildingBlock: E120, # of connection points: 2
#     Edge 52, Type (0, 0), BuildingBlock: E120, # of connection points: 2
#     Edge 53, Type (0, 0), BuildingBlock: E120, # of connection points: 2
#     Edge 54, Type (0, 0), BuildingBlock: E120, # of connection points: 2
#     Edge 55, Type (0, 0), BuildingBlock: E120, # of connection points: 2
#     Edge 56, Type (0, 0), BuildingBlock: E120, # of connection points: 2
#     Edge 57, Type (0, 0), BuildingBlock: E120, # of connection points: 2
#     Edge 58, Type (0, 0), BuildingBlock: E120, # of connection points: 2
#     Edge 59, Type (0, 0), BuildingBlock: E120, # of connection points: 2
#     Edge 60, Type (0, 0), BuildingBlock: E120, # of connection points: 2
#     Edge 61, Type (0, 0), BuildingBlock: E120, # of connection points: 2
#     Edge 62, Type (0, 0), BuildingBlock: E120, # of connection points: 2
#     Edge 63, Type (0, 0), BuildingBlock: E120, # of connection points: 2
#     Edge 64, Type (0, 0), BuildingBlock: E120, # of connection points: 2
#     Edge 65, Type (0, 0), BuildingBlock: E120, # of connection points: 2
#     Edge 66, Type (0, 0), BuildingBlock: E120, # of connection points: 2
#     Edge 67, Type (0, 0), BuildingBlock: E120, # of connection points: 2
#     Edge 68, Type (0, 0), BuildingBlock: E120, # of connection points: 2
#     Edge 69, Type (0, 0), BuildingBlock: E120, # of connection points: 2
#     Edge 70, Type (0, 0), BuildingBlock: E120, # of connection points: 2
#     Edge 71, Type (0, 0), BuildingBlock: E120, # of connection points: 2
# Relax obj value: 0.184
# Max RMSD: 0.314
# Mean RMSD: 0.249
data_lta+N446+E120
_symmetry_space_group_name_H-M    P1
_symmetry_Int_Tables_number       1
_symmetry_cell_setting            triclinic
loop_
_symmetry_equiv_pos_as_xyz
'x, y, z'
_cell_length_a     50.617
_cell_length_b     50.617
_cell_length_c     54.260
_cell_angle_alpha  90.000
_cell_angle_beta   90.000
_cell_angle_gamma  90.000
loop_
_atom_site_label
_atom_site_type_symbol
_atom_site_fract_x
_atom_site_fract_y
_atom_site_fract_z
_atom_type_partial_charge
O0 O 0.80995 0.51921 0.71554 0.00000
O1 O 0.82944 0.45391 0.65349 0.00000
O2 O 0.84108 0.56625 0.70228 0.00000
O3 O 0.85783 0.53776 0.62163 0.00000
O4 O 0.90197 0.50519 0.64623 0.00000
O5 O 0.84850 0.50994 0.67587 0.00000
Zn6 Zn 0.82471 0.53976 0.68073 0.00000
Zn7 Zn 0.87409 0.51085 0.70185 0.00000
Zn8 Zn 0.82339 0.48063 0.67933 0.00000
Zn9 Zn 0.86325 0.50801 0.64336 0.00000
O10 O 0.83721 0.56211 0.65016 0.00000
O11 O 0.87583 0.48137 0.72476 0.00000
O12 O 0.87508 0.54469 0.71929 0.00000
O13 O 0.85551 0.47468 0.62632 0.00000
O14 O 0.84743 0.45772 0.70274 0.00000
O15 O 0.90961 0.50882 0.68679 0.00000
C16 C 0.79430 0.50078 0.71684 0.00000
C17 C 0.86197 0.56536 0.71496 0.00000
C18 C 0.86433 0.46032 0.71910 0.00000
C19 C 0.84447 0.45455 0.63519 0.00000
C20 C 0.84861 0.55924 0.63014 0.00000
C21 C 0.78140 0.52042 0.65747 0.00000
C22 C 0.91687 0.50499 0.66491 0.00000
O23 O 0.78814 0.54024 0.67020 0.00000
O24 O 0.79557 0.50126 0.65310 0.00000
O25 O 0.79425 0.48052 0.70263 0.00000
O26 O 0.48079 0.19006 0.28446 0.00000
O27 O 0.54609 0.17057 0.34651 0.00000
O28 O 0.43375 0.15893 0.29772 0.00000
O29 O 0.46224 0.14218 0.37837 0.00000
O30 O 0.49481 0.09804 0.35377 0.00000
O31 O 0.49006 0.15150 0.32413 0.00000
Zn32 Zn 0.46024 0.17530 0.31927 0.00000
Zn33 Zn 0.48915 0.12592 0.29814 0.00000
Zn34 Zn 0.51937 0.17662 0.32066 0.00000
Zn35 Zn 0.49199 0.13676 0.35664 0.00000
O36 O 0.43789 0.16280 0.34984 0.00000
O37 O 0.51863 0.12418 0.27524 0.00000
O38 O 0.45531 0.12493 0.28071 0.00000
O39 O 0.52532 0.14450 0.37367 0.00000
O40 O 0.54228 0.15258 0.29726 0.00000
O41 O 0.49118 0.09040 0.31320 0.00000
C42 C 0.49922 0.20571 0.28316 0.00000
C43 C 0.43464 0.13803 0.28504 0.00000
C44 C 0.53968 0.13568 0.28090 0.00000
C45 C 0.54545 0.15554 0.36481 0.00000
C46 C 0.44076 0.15140 0.36985 0.00000
C47 C 0.47958 0.21861 0.34253 0.00000
C48 C 0.49501 0.08314 0.33508 0.00000
O49 O 0.45976 0.21187 0.32980 0.00000
O50 O 0.49874 0.20444 0.34690 0.00000
O51 O 0.51947 0.20576 0.29736 0.00000
O52 O 0.80994 0.48079 0.28446 0.00000
O53 O 0.82943 0.54609 0.34651 0.00000
O54 O 0.84108 0.43375 0.29772 0.00000
O55 O 0.85783 0.46224 0.37837 0.00000
O56 O 0.90197 0.49481 0.35377 0.00000
O57 O 0.84850 0.49006 0.32413 0.00000
Zn58 Zn 0.82470 0.46024 0.31927 0.00000
Zn59 Zn 0.87409 0.48915 0.29814 0.00000
Zn60 Zn 0.82338 0.51937 0.32067 0.00000
Zn61 Zn 0.86325 0.49199 0.35664 0.00000
O62 O 0.83720 0.43789 0.34984 0.00000
O63 O 0.87582 0.51863 0.27524 0.00000
O64 O 0.87508 0.45531 0.28071 0.00000
O65 O 0.85551 0.52532 0.37367 0.00000
O66 O 0.84743 0.54228 0.29726 0.00000
O67 O 0.90960 0.49118 0.31321 0.00000
C68 C 0.79430 0.49922 0.28316 0.00000
C69 C 0.86197 0.43464 0.28504 0.00000
C70 C 0.86433 0.53968 0.28090 0.00000
C71 C 0.84446 0.54545 0.36481 0.00000
C72 C 0.84860 0.44076 0.36985 0.00000
C73 C 0.78140 0.47958 0.34253 0.00000
C74 C 0.91687 0.49501 0.33508 0.00000
O75 O 0.78813 0.45976 0.32980 0.00000
O76 O 0.79557 0.49874 0.34690 0.00000
O77 O 0.79424 0.51948 0.29736 0.00000
O78 O 0.51921 0.80994 0.28446 0.00000
O79 O 0.45391 0.82943 0.34651 0.00000
O80 O 0.56625 0.84107 0.29772 0.00000
O81 O 0.53776 0.85782 0.37837 0.00000
O82 O 0.50519 0.90196 0.35377 0.00000
O83 O 0.50994 0.84850 0.32413 0.00000
Zn84 Zn 0.53976 0.82470 0.31927 0.00000
Zn85 Zn 0.51085 0.87408 0.29814 0.00000
Zn86 Zn 0.48063 0.82338 0.32066 0.00000
Zn87 Zn 0.50801 0.86324 0.35664 0.00000
O88 O 0.56211 0.83720 0.34984 0.00000
O89 O 0.48137 0.87582 0.27524 0.00000
O90 O 0.54469 0.87507 0.28071 0.00000
O91 O 0.47468 0.85550 0.37367 0.00000
O92 O 0.45772 0.84742 0.29726 0.00000
O93 O 0.50882 0.90960 0.31320 0.00000
C94 C 0.50078 0.79429 0.28315 0.00000
C95 C 0.56536 0.86197 0.28504 0.00000
C96 C 0.46032 0.86432 0.28089 0.00000
C97 C 0.45455 0.84446 0.36481 0.00000
C98 C 0.55924 0.84860 0.36985 0.00000
C99 C 0.52042 0.78139 0.34253 0.00000
C100 C 0.50499 0.91686 0.33508 0.00000
O101 O 0.54024 0.78813 0.32980 0.00000
O102 O 0.50126 0.79556 0.34690 0.00000
O103 O 0.48053 0.79424 0.29736 0.00000
O104 O 0.19006 0.51921 0.28446 0.00000
O105 O 0.17056 0.45391 0.34651 0.00000
O106 O 0.15892 0.56625 0.29772 0.00000
O107 O 0.14217 0.53776 0.37837 0.00000
O108 O 0.09803 0.50519 0.35377 0.00000
O109 O 0.15150 0.50994 0.32413 0.00000
Zn110 Zn 0.17530 0.53976 0.31927 0.00000
Zn111 Zn 0.12591 0.51085 0.29815 0.00000
Zn112 Zn 0.17661 0.48063 0.32067 0.00000
Zn113 Zn 0.13675 0.50801 0.35664 0.00000
O114 O 0.16280 0.56211 0.34984 0.00000
O115 O 0.12417 0.48137 0.27524 0.00000
O116 O 0.12492 0.54469 0.28071 0.00000
O117 O 0.14449 0.47468 0.37368 0.00000
O118 O 0.15257 0.45772 0.29726 0.00000
O119 O 0.09040 0.50882 0.31321 0.00000
C120 C 0.20570 0.50078 0.28316 0.00000
C121 C 0.13803 0.56536 0.28504 0.00000
C122 C 0.13567 0.46032 0.28090 0.00000
C123 C 0.15554 0.45455 0.36481 0.00000
C124 C 0.15139 0.55924 0.36986 0.00000
C125 C 0.21860 0.52042 0.34253 0.00000
C126 C 0.08313 0.50499 0.33509 0.00000
O127 O 0.21187 0.54024 0.32980 0.00000
O128 O 0.20443 0.50126 0.34690 0.00000
O129 O 0.20576 0.48052 0.29737 0.00000
O130 O 0.72645 0.47332 0.83394 0.00000
O131 O 0.66223 0.53987 0.85511 0.00000
O132 O 0.71350 0.42688 0.86432 0.00000
O133 O 0.62867 0.45690 0.88453 0.00000
O134 O 0.65819 0.48959 0.92371 0.00000
O135 O 0.68653 0.48371 0.87217 0.00000
Zn136 Zn 0.68982 0.45352 0.85008 0.00000
Zn137 Zn 0.71589 0.48268 0.89440 0.00000
Zn138 Zn 0.68911 0.51265 0.84822 0.00000
Zn139 Zn 0.65269 0.48635 0.88788 0.00000
O140 O 0.65756 0.43184 0.86387 0.00000
O141 O 0.74094 0.51180 0.89425 0.00000
O142 O 0.73411 0.44856 0.89467 0.00000
O143 O 0.63447 0.51987 0.88131 0.00000
O144 O 0.71598 0.53546 0.86888 0.00000
O145 O 0.70200 0.48539 0.92837 0.00000
C146 C 0.72715 0.49153 0.81907 0.00000
C147 C 0.72837 0.42781 0.88298 0.00000
C148 C 0.73448 0.53279 0.88364 0.00000
C149 C 0.64357 0.53971 0.87024 0.00000
C150 C 0.63689 0.43517 0.87568 0.00000
C151 C 0.66255 0.47272 0.81095 0.00000
C152 C 0.67910 0.48966 0.93644 0.00000
O153 O 0.67629 0.45277 0.81668 0.00000
O154 O 0.65903 0.49212 0.82418 0.00000
O155 O 0.71224 0.51202 0.81965 0.00000
O156 O 0.72645 0.52668 0.16606 0.00000
O157 O 0.66223 0.46013 0.14489 0.00000
O158 O 0.71350 0.57312 0.13568 0.00000
O159 O 0.62867 0.54310 0.11547 0.00000
O160 O 0.65819 0.51041 0.07629 0.00000
O161 O 0.68653 0.51629 0.12783 0.00000
Zn162 Zn 0.68982 0.54648 0.14992 0.00000
Zn163 Zn 0.71589 0.51732 0.10560 0.00000
Zn164 Zn 0.68911 0.48735 0.15178 0.00000
Zn165 Zn 0.65269 0.51365 0.11212 0.00000
O166 O 0.65756 0.56816 0.13613 0.00000
O167 O 0.74094 0.48820 0.10575 0.00000
O168 O 0.73411 0.55144 0.10533 0.00000
O169 O 0.63447 0.48013 0.11869 0.00000
O170 O 0.71598 0.46454 0.13112 0.00000
O171 O 0.70200 0.51461 0.07163 0.00000
C172 C 0.72715 0.50847 0.18093 0.00000
C173 C 0.72837 0.57219 0.11702 0.00000
C174 C 0.73449 0.46721 0.11636 0.00000
C175 C 0.64357 0.46029 0.12976 0.00000
C176 C 0.63689 0.56483 0.12432 0.00000
C177 C 0.66255 0.52728 0.18905 0.00000
C178 C 0.67910 0.51034 0.06356 0.00000
O179 O 0.67629 0.54723 0.18332 0.00000
O180 O 0.65903 0.50788 0.17582 0.00000
O181 O 0.71224 0.48798 0.18035 0.00000
O182 O 0.48079 0.80994 0.71554 0.00000
O183 O 0.54609 0.82943 0.65349 0.00000
O184 O 0.43375 0.84108 0.70228 0.00000
O185 O 0.46224 0.85783 0.62163 0.00000
O186 O 0.49481 0.90196 0.64623 0.00000
O187 O 0.49006 0.84850 0.67587 0.00000
Zn188 Zn 0.46024 0.82470 0.68073 0.00000
Zn189 Zn 0.48915 0.87408 0.70185 0.00000
Zn190 Zn 0.51937 0.82338 0.67933 0.00000
Zn191 Zn 0.49199 0.86325 0.64336 0.00000
O192 O 0.43789 0.83720 0.65016 0.00000
O193 O 0.51863 0.87582 0.72476 0.00000
O194 O 0.45531 0.87508 0.71929 0.00000
O195 O 0.52532 0.85550 0.62632 0.00000
O196 O 0.54228 0.84742 0.70274 0.00000
O197 O 0.49118 0.90960 0.68679 0.00000
C198 C 0.49922 0.79430 0.71684 0.00000
C199 C 0.43464 0.86197 0.71496 0.00000
C200 C 0.53968 0.86433 0.71910 0.00000
C201 C 0.54545 0.84446 0.63519 0.00000
C202 C 0.44076 0.84860 0.63014 0.00000
C203 C 0.47958 0.78140 0.65747 0.00000
C204 C 0.49501 0.91687 0.66491 0.00000
O205 O 0.45976 0.78813 0.67019 0.00000
O206 O 0.49874 0.79557 0.65310 0.00000
O207 O 0.51947 0.79424 0.70263 0.00000
O208 O 0.30432 0.92884 0.47940 0.00000
O209 O 0.34785 0.87439 0.53992 0.00000
O210 O 0.29761 0.89530 0.43550 0.00000
O211 O 0.35874 0.83166 0.46154 0.00000
O212 O 0.31196 0.81078 0.49220 0.00000
O213 O 0.31685 0.87278 0.48786 0.00000
Zn214 Zn 0.32612 0.89528 0.46002 0.00000
Zn215 Zn 0.27933 0.86798 0.48726 0.00000
Zn216 Zn 0.32853 0.89538 0.51516 0.00000
Zn217 Zn 0.33680 0.84062 0.48946 0.00000
O218 O 0.34550 0.86621 0.43899 0.00000
O219 O 0.25849 0.88067 0.51492 0.00000
O220 O 0.26325 0.87802 0.45581 0.00000
O221 O 0.35643 0.83634 0.52042 0.00000
O222 O 0.29433 0.89019 0.53676 0.00000
O223 O 0.27202 0.82965 0.48913 0.00000
C224 C 0.31234 0.94238 0.49656 0.00000
C225 C 0.27446 0.88609 0.43647 0.00000
C226 C 0.27023 0.88652 0.53449 0.00000
C227 C 0.35519 0.85080 0.53923 0.00000
C228 C 0.35646 0.84450 0.44154 0.00000
C229 C 0.37161 0.91621 0.47779 0.00000
C230 C 0.28701 0.81017 0.49256 0.00000
O231 O 0.35645 0.91863 0.45941 0.00000
O232 O 0.36740 0.90190 0.49567 0.00000
O233 O 0.32496 0.93359 0.51536 0.00000
O234 O 0.07117 0.69568 0.52060 0.00000
O235 O 0.12561 0.65215 0.46008 0.00000
O236 O 0.10470 0.70239 0.56450 0.00000
O237 O 0.16834 0.64126 0.53846 0.00000
O238 O 0.18923 0.68803 0.50780 0.00000
O239 O 0.12722 0.68315 0.51215 0.00000
Zn240 Zn 0.10472 0.67388 0.53998 0.00000
Zn241 Zn 0.13203 0.72067 0.51275 0.00000
Zn242 Zn 0.10462 0.67147 0.48484 0.00000
Zn243 Zn 0.15938 0.66320 0.51054 0.00000
O244 O 0.13380 0.65450 0.56101 0.00000
O245 O 0.11933 0.74151 0.48508 0.00000
O246 O 0.12198 0.73675 0.54419 0.00000
O247 O 0.16367 0.64357 0.47958 0.00000
O248 O 0.10982 0.70567 0.46324 0.00000
O249 O 0.17035 0.72798 0.51088 0.00000
C250 C 0.05762 0.68766 0.50344 0.00000
C251 C 0.11391 0.72554 0.56354 0.00000
C252 C 0.11349 0.72977 0.46552 0.00000
C253 C 0.14921 0.64481 0.46077 0.00000
C254 C 0.15550 0.64354 0.55846 0.00000
C255 C 0.08379 0.62839 0.52221 0.00000
C256 C 0.18983 0.71299 0.50744 0.00000
O257 O 0.08137 0.64355 0.54059 0.00000
O258 O 0.09810 0.63260 0.50433 0.00000
O259 O 0.06641 0.67504 0.48464 0.00000
O260 O 0.69568 0.07116 0.47940 0.00000
O261 O 0.65215 0.12561 0.53992 0.00000
O262 O 0.70239 0.10470 0.43550 0.00000
O263 O 0.64126 0.16834 0.46154 0.00000
O264 O 0.68804 0.18922 0.49220 0.00000
O265 O 0.68315 0.12722 0.48786 0.00000
Zn266 Zn 0.67388 0.10472 0.46002 0.00000
Zn267 Zn 0.72067 0.13202 0.48726 0.00000
Zn268 Zn 0.67147 0.10462 0.51516 0.00000
Zn269 Zn 0.66320 0.15938 0.48946 0.00000
O270 O 0.65450 0.13379 0.43899 0.00000
O271 O 0.74151 0.11933 0.51492 0.00000
O272 O 0.73675 0.12198 0.45581 0.00000
O273 O 0.64357 0.16366 0.52042 0.00000
O274 O 0.70567 0.10981 0.53676 0.00000
O275 O 0.72798 0.17035 0.48912 0.00000
C276 C 0.68766 0.05762 0.49656 0.00000
C277 C 0.72554 0.11391 0.43647 0.00000
C278 C 0.72977 0.11348 0.53449 0.00000
C279 C 0.64481 0.14920 0.53923 0.00000
C280 C 0.64354 0.15550 0.44154 0.00000
C281 C 0.62839 0.08379 0.47779 0.00000
C282 C 0.71299 0.18983 0.49256 0.00000
O283 O 0.64355 0.08137 0.45941 0.00000
O284 O 0.63260 0.09810 0.49567 0.00000
O285 O 0.67504 0.06641 0.51536 0.00000
O286 O 0.92883 0.69568 0.47940 0.00000
O287 O 0.87439 0.65215 0.53992 0.00000
O288 O 0.89530 0.70239 0.43550 0.00000
O289 O 0.83166 0.64126 0.46154 0.00000
O290 O 0.81077 0.68804 0.49220 0.00000
O291 O 0.87278 0.68315 0.48786 0.00000
Zn292 Zn 0.89528 0.67388 0.46002 0.00000
Zn293 Zn 0.86797 0.72067 0.48725 0.00000
Zn294 Zn 0.89538 0.67147 0.51516 0.00000
Zn295 Zn 0.84062 0.66320 0.48946 0.00000
O296 O 0.86620 0.65450 0.43899 0.00000
O297 O 0.88067 0.74151 0.51492 0.00000
O298 O 0.87802 0.73675 0.45581 0.00000
O299 O 0.83633 0.64357 0.52042 0.00000
O300 O 0.89019 0.70567 0.53676 0.00000
O301 O 0.82965 0.72798 0.48912 0.00000
C302 C 0.94238 0.68766 0.49656 0.00000
C303 C 0.88609 0.72554 0.43647 0.00000
C304 C 0.88651 0.72977 0.53448 0.00000
C305 C 0.85079 0.64481 0.53923 0.00000
C306 C 0.84450 0.64354 0.44154 0.00000
C307 C 0.91621 0.62839 0.47779 0.00000
C308 C 0.81017 0.71299 0.49256 0.00000
O309 O 0.91863 0.64355 0.45941 0.00000
O310 O 0.90190 0.63260 0.49567 0.00000
O311 O 0.93359 0.67504 0.51536 0.00000
O312 O 0.07117 0.30432 0.47940 0.00000
O313 O 0.12561 0.34785 0.53992 0.00000
O314 O 0.10470 0.29761 0.43550 0.00000
O315 O 0.16834 0.35874 0.46154 0.00000
O316 O 0.18923 0.31197 0.49220 0.00000
O317 O 0.12722 0.31685 0.48786 0.00000
Zn318 Zn 0.10472 0.32612 0.46002 0.00000
Zn319 Zn 0.13203 0.27933 0.48726 0.00000
Zn320 Zn 0.10462 0.32853 0.51516 0.00000
Zn321 Zn 0.15938 0.33680 0.48946 0.00000
O322 O 0.13380 0.34550 0.43899 0.00000
O323 O 0.11933 0.25849 0.51492 0.00000
O324 O 0.12198 0.26325 0.45581 0.00000
O325 O 0.16367 0.35643 0.52042 0.00000
O326 O 0.10982 0.29433 0.53676 0.00000
O327 O 0.17035 0.27202 0.48912 0.00000
C328 C 0.05762 0.31234 0.49656 0.00000
C329 C 0.11391 0.27446 0.43647 0.00000
C330 C 0.11349 0.27023 0.53448 0.00000
C331 C 0.14921 0.35519 0.53923 0.00000
C332 C 0.15550 0.35646 0.44154 0.00000
C333 C 0.08379 0.37161 0.47779 0.00000
C334 C 0.18983 0.28701 0.49256 0.00000
O335 O 0.08137 0.35645 0.45941 0.00000
O336 O 0.09810 0.36740 0.49567 0.00000
O337 O 0.06641 0.32496 0.51536 0.00000
O338 O 0.30432 0.07116 0.52060 0.00000
O339 O 0.34785 0.12561 0.46008 0.00000
O340 O 0.29761 0.10470 0.56450 0.00000
O341 O 0.35874 0.16834 0.53846 0.00000
O342 O 0.31196 0.18922 0.50780 0.00000
O343 O 0.31685 0.12722 0.51215 0.00000
Zn344 Zn 0.32612 0.10472 0.53998 0.00000
Zn345 Zn 0.27933 0.13202 0.51275 0.00000
Zn346 Zn 0.32853 0.10462 0.48484 0.00000
Zn347 Zn 0.33680 0.15938 0.51054 0.00000
O348 O 0.34550 0.13379 0.56101 0.00000
O349 O 0.25849 0.11933 0.48508 0.00000
O350 O 0.26325 0.12198 0.54419 0.00000
O351 O 0.35643 0.16367 0.47958 0.00000
O352 O 0.29433 0.10981 0.46324 0.00000
O353 O 0.27202 0.17035 0.51088 0.00000
C354 C 0.31234 0.05762 0.50344 0.00000
C355 C 0.27446 0.11391 0.56354 0.00000
C356 C 0.27023 0.11348 0.46552 0.00000
C357 C 0.35519 0.14920 0.46077 0.00000
C358 C 0.35646 0.15550 0.55846 0.00000
C359 C 0.37161 0.08379 0.52221 0.00000
C360 C 0.28701 0.18983 0.50744 0.00000
O361 O 0.35645 0.08137 0.54059 0.00000
O362 O 0.36740 0.09810 0.50433 0.00000
O363 O 0.32496 0.06641 0.48464 0.00000
O364 O 0.92883 0.30432 0.52060 0.00000
O365 O 0.87439 0.34785 0.46008 0.00000
O366 O 0.89530 0.29761 0.56450 0.00000
O367 O 0.83166 0.35874 0.53846 0.00000
O368 O 0.81077 0.31196 0.50780 0.00000
O369 O 0.87278 0.31685 0.51215 0.00000
Zn370 Zn 0.89528 0.32612 0.53998 0.00000
Zn371 Zn 0.86797 0.27933 0.51275 0.00000
Zn372 Zn 0.89538 0.32853 0.48484 0.00000
Zn373 Zn 0.84062 0.33680 0.51054 0.00000
O374 O 0.86620 0.34550 0.56101 0.00000
O375 O 0.88067 0.25849 0.48508 0.00000
O376 O 0.87802 0.26325 0.54419 0.00000
O377 O 0.83633 0.35643 0.47958 0.00000
O378 O 0.89018 0.29433 0.46324 0.00000
O379 O 0.82965 0.27202 0.51088 0.00000
C380 C 0.94238 0.31234 0.50344 0.00000
C381 C 0.88609 0.27446 0.56353 0.00000
C382 C 0.88651 0.27023 0.46552 0.00000
C383 C 0.85079 0.35519 0.46077 0.00000
C384 C 0.84450 0.35646 0.55846 0.00000
C385 C 0.91621 0.37161 0.52221 0.00000
C386 C 0.81017 0.28701 0.50744 0.00000
O387 O 0.91863 0.35645 0.54059 0.00000
O388 O 0.90190 0.36740 0.50433 0.00000
O389 O 0.93359 0.32496 0.48464 0.00000
O390 O 0.52668 0.72645 0.83395 0.00000
O391 O 0.46013 0.66223 0.85512 0.00000
O392 O 0.57312 0.71349 0.86433 0.00000
O393 O 0.54310 0.62867 0.88453 0.00000
O394 O 0.51041 0.65819 0.92372 0.00000
O395 O 0.51629 0.68653 0.87218 0.00000
Zn396 Zn 0.54648 0.68982 0.85008 0.00000
Zn397 Zn 0.51732 0.71589 0.89441 0.00000
Zn398 Zn 0.48735 0.68911 0.84822 0.00000
Zn399 Zn 0.51365 0.65269 0.88788 0.00000
O400 O 0.56816 0.65756 0.86387 0.00000
O401 O 0.48820 0.74094 0.89426 0.00000
O402 O 0.55144 0.73411 0.89467 0.00000
O403 O 0.48013 0.63447 0.88132 0.00000
O404 O 0.46454 0.71598 0.86889 0.00000
O405 O 0.51461 0.70200 0.92838 0.00000
C406 C 0.50847 0.72715 0.81908 0.00000
C407 C 0.57219 0.72837 0.88299 0.00000
C408 C 0.46721 0.73448 0.88365 0.00000
C409 C 0.46029 0.64357 0.87025 0.00000
C410 C 0.56483 0.63689 0.87569 0.00000
C411 C 0.52728 0.66255 0.81096 0.00000
C412 C 0.51034 0.67910 0.93644 0.00000
O413 O 0.54723 0.67629 0.81669 0.00000
O414 O 0.50788 0.65903 0.82419 0.00000
O415 O 0.48798 0.71224 0.81966 0.00000
O416 O 0.47332 0.72645 0.16605 0.00000
O417 O 0.53987 0.66223 0.14488 0.00000
O418 O 0.42688 0.71350 0.13568 0.00000
O419 O 0.45690 0.62867 0.11547 0.00000
O420 O 0.48959 0.65819 0.07628 0.00000
O421 O 0.48371 0.68653 0.12782 0.00000
Zn422 Zn 0.45352 0.68982 0.14992 0.00000
Zn423 Zn 0.48268 0.71589 0.10559 0.00000
Zn424 Zn 0.51265 0.68911 0.15178 0.00000
Zn425 Zn 0.48635 0.65269 0.11212 0.00000
O426 O 0.43184 0.65756 0.13613 0.00000
O427 O 0.51180 0.74094 0.10574 0.00000
O428 O 0.44856 0.73411 0.10533 0.00000
O429 O 0.51987 0.63447 0.11868 0.00000
O430 O 0.53546 0.71598 0.13111 0.00000
O431 O 0.48539 0.70200 0.07162 0.00000
C432 C 0.49153 0.72715 0.18092 0.00000
C433 C 0.42781 0.72837 0.11702 0.00000
C434 C 0.53279 0.73449 0.11636 0.00000
C435 C 0.53971 0.64357 0.12975 0.00000
C436 C 0.43517 0.63689 0.12432 0.00000
C437 C 0.47272 0.66255 0.18904 0.00000
C438 C 0.48966 0.67910 0.06356 0.00000
O439 O 0.45277 0.67629 0.18331 0.00000
O440 O 0.49212 0.65903 0.17581 0.00000
O441 O 0.51202 0.71225 0.18034 0.00000
O442 O 0.27355 0.47332 0.16605 0.00000
O443 O 0.33777 0.53987 0.14488 0.00000
O444 O 0.28650 0.42688 0.13568 0.00000
O445 O 0.37133 0.45690 0.11547 0.00000
O446 O 0.34181 0.48959 0.07629 0.00000
O447 O 0.31347 0.48371 0.12783 0.00000
Zn448 Zn 0.31018 0.45352 0.14992 0.00000
Zn449 Zn 0.28411 0.48268 0.10560 0.00000
Zn450 Zn 0.31089 0.51265 0.15178 0.00000
Zn451 Zn 0.34731 0.48635 0.11212 0.00000
O452 O 0.34244 0.43184 0.13613 0.00000
O453 O 0.25906 0.51180 0.10575 0.00000
O454 O 0.26589 0.44856 0.10533 0.00000
O455 O 0.36553 0.51987 0.11869 0.00000
O456 O 0.28402 0.53546 0.13112 0.00000
O457 O 0.29800 0.48539 0.07163 0.00000
C458 C 0.27285 0.49153 0.18093 0.00000
C459 C 0.27163 0.42781 0.11702 0.00000
C460 C 0.26552 0.53279 0.11636 0.00000
C461 C 0.35643 0.53971 0.12976 0.00000
C462 C 0.36311 0.43517 0.12432 0.00000
C463 C 0.33745 0.47272 0.18904 0.00000
C464 C 0.32090 0.48966 0.06356 0.00000
O465 O 0.32371 0.45277 0.18332 0.00000
O466 O 0.34097 0.49212 0.17581 0.00000
O467 O 0.28776 0.51202 0.18035 0.00000
O468 O 0.52668 0.27355 0.16605 0.00000
O469 O 0.46013 0.33777 0.14488 0.00000
O470 O 0.57312 0.28650 0.13568 0.00000
O471 O 0.54310 0.37133 0.11547 0.00000
O472 O 0.51041 0.34181 0.07628 0.00000
O473 O 0.51629 0.31347 0.12783 0.00000
Zn474 Zn 0.54648 0.31018 0.14992 0.00000
Zn475 Zn 0.51732 0.28411 0.10559 0.00000
Zn476 Zn 0.48735 0.31089 0.15178 0.00000
Zn477 Zn 0.51365 0.34731 0.11212 0.00000
O478 O 0.56816 0.34244 0.13613 0.00000
O479 O 0.48820 0.25906 0.10574 0.00000
O480 O 0.55144 0.26589 0.10533 0.00000
O481 O 0.48013 0.36553 0.11868 0.00000
O482 O 0.46454 0.28402 0.13111 0.00000
O483 O 0.51461 0.29800 0.07162 0.00000
C484 C 0.50847 0.27285 0.18092 0.00000
C485 C 0.57219 0.27163 0.11702 0.00000
C486 C 0.46721 0.26551 0.11635 0.00000
C487 C 0.46029 0.35643 0.12975 0.00000
C488 C 0.56483 0.36311 0.12432 0.00000
C489 C 0.52728 0.33745 0.18904 0.00000
C490 C 0.51034 0.32090 0.06356 0.00000
O491 O 0.54723 0.32371 0.18331 0.00000
O492 O 0.50788 0.34097 0.17581 0.00000
O493 O 0.48798 0.28775 0.18034 0.00000
O494 O 0.27355 0.52668 0.83395 0.00000
O495 O 0.33777 0.46013 0.85512 0.00000
O496 O 0.28651 0.57312 0.86432 0.00000
O497 O 0.37133 0.54310 0.88453 0.00000
O498 O 0.34181 0.51041 0.92371 0.00000
O499 O 0.31347 0.51629 0.87217 0.00000
Zn500 Zn 0.31018 0.54648 0.85008 0.00000
Zn501 Zn 0.28411 0.51732 0.89440 0.00000
Zn502 Zn 0.31089 0.48735 0.84822 0.00000
Zn503 Zn 0.34731 0.51365 0.88788 0.00000
O504 O 0.34244 0.56816 0.86387 0.00000
O505 O 0.25906 0.48820 0.89425 0.00000
O506 O 0.26589 0.55144 0.89467 0.00000
O507 O 0.36553 0.48013 0.88131 0.00000
O508 O 0.28402 0.46454 0.86888 0.00000
O509 O 0.29800 0.51461 0.92837 0.00000
C510 C 0.27285 0.50847 0.81907 0.00000
C511 C 0.27163 0.57219 0.88298 0.00000
C512 C 0.26552 0.46721 0.88364 0.00000
C513 C 0.35643 0.46029 0.87024 0.00000
C514 C 0.36311 0.56483 0.87568 0.00000
C515 C 0.33745 0.52728 0.81096 0.00000
C516 C 0.32090 0.51034 0.93644 0.00000
O517 O 0.32371 0.54723 0.81669 0.00000
O518 O 0.34097 0.50788 0.82419 0.00000
O519 O 0.28776 0.48798 0.81965 0.00000
O520 O 0.47332 0.27355 0.83395 0.00000
O521 O 0.53987 0.33777 0.85512 0.00000
O522 O 0.42688 0.28651 0.86433 0.00000
O523 O 0.45690 0.37133 0.88453 0.00000
O524 O 0.48959 0.34181 0.92372 0.00000
O525 O 0.48371 0.31347 0.87218 0.00000
Zn526 Zn 0.45352 0.31018 0.85008 0.00000
Zn527 Zn 0.48268 0.28411 0.89441 0.00000
Zn528 Zn 0.51265 0.31089 0.84822 0.00000
Zn529 Zn 0.48635 0.34731 0.88788 0.00000
O530 O 0.43184 0.34244 0.86387 0.00000
O531 O 0.51180 0.25906 0.89426 0.00000
O532 O 0.44856 0.26589 0.89467 0.00000
O533 O 0.51987 0.36553 0.88132 0.00000
O534 O 0.53546 0.28402 0.86889 0.00000
O535 O 0.48539 0.29800 0.92838 0.00000
C536 C 0.49153 0.27285 0.81908 0.00000
C537 C 0.42781 0.27163 0.88299 0.00000
C538 C 0.53279 0.26552 0.88365 0.00000
C539 C 0.53971 0.35643 0.87025 0.00000
C540 C 0.43517 0.36311 0.87568 0.00000
C541 C 0.47272 0.33745 0.81096 0.00000
C542 C 0.48966 0.32090 0.93644 0.00000
O543 O 0.45277 0.32371 0.81669 0.00000
O544 O 0.49212 0.34097 0.82419 0.00000
O545 O 0.51202 0.28776 0.81966 0.00000
O546 O 0.69568 0.92884 0.52060 0.00000
O547 O 0.65215 0.87439 0.46008 0.00000
O548 O 0.70239 0.89530 0.56450 0.00000
O549 O 0.64126 0.83166 0.53846 0.00000
O550 O 0.68804 0.81078 0.50780 0.00000
O551 O 0.68315 0.87278 0.51215 0.00000
Zn552 Zn 0.67388 0.89528 0.53998 0.00000
Zn553 Zn 0.72067 0.86798 0.51275 0.00000
Zn554 Zn 0.67147 0.89538 0.48484 0.00000
Zn555 Zn 0.66320 0.84062 0.51054 0.00000
O556 O 0.65450 0.86621 0.56101 0.00000
O557 O 0.74151 0.88067 0.48508 0.00000
O558 O 0.73675 0.87802 0.54419 0.00000
O559 O 0.64357 0.83633 0.47958 0.00000
O560 O 0.70567 0.89019 0.46324 0.00000
O561 O 0.72798 0.82965 0.51088 0.00000
C562 C 0.68766 0.94238 0.50344 0.00000
C563 C 0.72554 0.88609 0.56354 0.00000
C564 C 0.72977 0.88652 0.46552 0.00000
C565 C 0.64481 0.85080 0.46077 0.00000
C566 C 0.64354 0.84450 0.55846 0.00000
C567 C 0.62839 0.91621 0.52221 0.00000
C568 C 0.71299 0.81017 0.50744 0.00000
O569 O 0.64355 0.91863 0.54059 0.00000
O570 O 0.63260 0.90190 0.50433 0.00000
O571 O 0.67504 0.93359 0.48464 0.00000
O572 O 0.19005 0.48079 0.71554 0.00000
O573 O 0.17056 0.54609 0.65349 0.00000
O574 O 0.15892 0.43375 0.70228 0.00000
O575 O 0.14217 0.46224 0.62163 0.00000
O576 O 0.09803 0.49481 0.64623 0.00000
O577 O 0.15150 0.49006 0.67587 0.00000
Zn578 Zn 0.17529 0.46024 0.68073 0.00000
Zn579 Zn 0.12591 0.48915 0.70185 0.00000
Zn580 Zn 0.17661 0.51937 0.67933 0.00000
Zn581 Zn 0.13675 0.49199 0.64336 0.00000
O582 O 0.16279 0.43789 0.65016 0.00000
O583 O 0.12417 0.51863 0.72476 0.00000
O584 O 0.12492 0.45531 0.71929 0.00000
O585 O 0.14449 0.52532 0.62632 0.00000
O586 O 0.15257 0.54228 0.70274 0.00000
O587 O 0.09039 0.49118 0.68679 0.00000
C588 C 0.20570 0.49922 0.71684 0.00000
C589 C 0.13803 0.43464 0.71496 0.00000
C590 C 0.13567 0.53968 0.71910 0.00000
C591 C 0.15553 0.54545 0.63519 0.00000
C592 C 0.15139 0.44076 0.63014 0.00000
C593 C 0.21860 0.47958 0.65747 0.00000
C594 C 0.08313 0.49501 0.66491 0.00000
O595 O 0.21186 0.45976 0.67019 0.00000
O596 O 0.20443 0.49874 0.65310 0.00000
O597 O 0.20575 0.51948 0.70263 0.00000
O598 O 0.51921 0.19006 0.71554 0.00000
O599 O 0.45391 0.17057 0.65349 0.00000
O600 O 0.56625 0.15892 0.70228 0.00000
O601 O 0.53776 0.14217 0.62163 0.00000
O602 O 0.50519 0.09804 0.64623 0.00000
O603 O 0.50994 0.15150 0.67587 0.00000
Zn604 Zn 0.53976 0.17530 0.68073 0.00000
Zn605 Zn 0.51085 0.12592 0.70185 0.00000
Zn606 Zn 0.48063 0.17662 0.67933 0.00000
Zn607 Zn 0.50801 0.13675 0.64336 0.00000
O608 O 0.56211 0.16280 0.65016 0.00000
O609 O 0.48137 0.12418 0.72476 0.00000
O610 O 0.54469 0.12492 0.71929 0.00000
O611 O 0.47468 0.14450 0.62632 0.00000
O612 O 0.45772 0.15258 0.70274 0.00000
O613 O 0.50882 0.09040 0.68679 0.00000
C614 C 0.50078 0.20570 0.71684 0.00000
C615 C 0.56536 0.13803 0.71496 0.00000
C616 C 0.46032 0.13567 0.71910 0.00000
C617 C 0.45455 0.15554 0.63519 0.00000
C618 C 0.55924 0.15140 0.63014 0.00000
C619 C 0.52042 0.21860 0.65747 0.00000
C620 C 0.50499 0.08313 0.66491 0.00000
O621 O 0.54024 0.21187 0.67019 0.00000
O622 O 0.50126 0.20443 0.65310 0.00000
O623 O 0.48053 0.20576 0.70263 0.00000
C624 C 0.84180 0.37575 0.57572 0.00000
C625 C 0.82992 0.39965 0.57536 0.00000
C626 C 0.83424 0.41798 0.59385 0.00000
C627 C 0.85108 0.41332 0.61247 0.00000
C628 C 0.86389 0.38968 0.61374 0.00000
C629 C 0.85910 0.37089 0.59511 0.00000
C630 C 0.85678 0.43303 0.63306 0.00000
O631 O 0.87092 0.42836 0.65060 0.00000
H632 H 0.81861 0.40382 0.56243 0.00000
H633 H 0.82524 0.43399 0.59333 0.00000
H634 H 0.87553 0.38607 0.62657 0.00000
H635 H 0.86773 0.35467 0.59579 0.00000
C636 C 0.56800 0.15015 0.37933 0.00000
C637 C 0.59061 0.13603 0.38072 0.00000
C638 C 0.60994 0.14209 0.39785 0.00000
C639 C 0.60680 0.16155 0.41440 0.00000
C640 C 0.58431 0.17634 0.41412 0.00000
C641 C 0.56486 0.17042 0.39638 0.00000
C642 C 0.62735 0.16871 0.43384 0.00000
O643 O 0.62519 0.18717 0.44799 0.00000
H644 H 0.59320 0.12199 0.36993 0.00000
H645 H 0.62554 0.13236 0.39789 0.00000
H646 H 0.58186 0.18998 0.42537 0.00000
H647 H 0.54941 0.18039 0.39601 0.00000
C648 C 0.83729 0.62530 0.42249 0.00000
C649 C 0.82780 0.62252 0.39936 0.00000
C650 C 0.83315 0.60019 0.38553 0.00000
C651 C 0.84716 0.57990 0.39465 0.00000
C652 C 0.85706 0.58138 0.41797 0.00000
C653 C 0.85195 0.60434 0.43186 0.00000
C654 C 0.85325 0.55475 0.38026 0.00000
O655 O 0.86706 0.53696 0.38798 0.00000
H656 H 0.81748 0.63590 0.39264 0.00000
H657 H 0.82683 0.59921 0.36945 0.00000
H658 H 0.86691 0.56757 0.42455 0.00000
H659 H 0.85861 0.60558 0.44781 0.00000
C660 C 0.37534 0.83770 0.42326 0.00000
C661 C 0.38170 0.82283 0.40346 0.00000
C662 C 0.40321 0.82899 0.38880 0.00000
C663 C 0.41926 0.84934 0.39400 0.00000
C664 C 0.41406 0.86495 0.41388 0.00000
C665 C 0.39188 0.85890 0.42853 0.00000
C666 C 0.44339 0.85668 0.37861 0.00000
O667 O 0.45715 0.87588 0.38251 0.00000
H668 H 0.37140 0.80819 0.39963 0.00000
H669 H 0.40663 0.81869 0.37496 0.00000
H670 H 0.42490 0.87922 0.41769 0.00000
H671 H 0.38813 0.86942 0.44216 0.00000
C672 C 0.15812 0.37572 0.42425 0.00000
C673 C 0.16953 0.39984 0.42492 0.00000
C674 C 0.16531 0.41814 0.40639 0.00000
C675 C 0.14903 0.41322 0.38741 0.00000
C676 C 0.13671 0.38934 0.38580 0.00000
C677 C 0.14140 0.37059 0.40448 0.00000
C678 C 0.14347 0.43288 0.36674 0.00000
O679 O 0.12985 0.42800 0.34889 0.00000
H680 H 0.18044 0.40418 0.43811 0.00000
H681 H 0.17400 0.43432 0.40714 0.00000
H682 H 0.12546 0.38555 0.37272 0.00000
H683 H 0.13309 0.35421 0.40358 0.00000
C684 C 0.58569 0.62035 0.87820 0.00000
C685 C 0.59082 0.60189 0.89553 0.00000
C686 C 0.60841 0.58149 0.89112 0.00000
C687 C 0.62186 0.57960 0.86987 0.00000
C688 C 0.61777 0.59778 0.85174 0.00000
C689 C 0.59951 0.61826 0.85614 0.00000
C690 C 0.64171 0.55773 0.86429 0.00000
O691 O 0.65288 0.55516 0.84463 0.00000
H692 H 0.58234 0.60292 0.91070 0.00000
H693 H 0.61098 0.56876 0.90325 0.00000
H694 H 0.62682 0.59670 0.83686 0.00000
H695 H 0.59655 0.63079 0.84389 0.00000
C696 C 0.58182 0.38270 0.12534 0.00000
C697 C 0.59516 0.39303 0.14463 0.00000
C698 C 0.61256 0.41385 0.14155 0.00000
C699 C 0.61631 0.42537 0.11954 0.00000
C700 C 0.60322 0.41604 0.09939 0.00000
C701 C 0.58585 0.39454 0.10252 0.00000
C702 C 0.63497 0.44859 0.11529 0.00000
O703 O 0.63945 0.45816 0.09521 0.00000
H704 H 0.59258 0.38597 0.16027 0.00000
H705 H 0.62190 0.42006 0.15514 0.00000
H706 H 0.60567 0.42369 0.08398 0.00000
H707 H 0.57681 0.38799 0.08889 0.00000
C708 C 0.63100 0.84738 0.44011 0.00000
C709 C 0.62750 0.86579 0.42239 0.00000
C710 C 0.60800 0.86309 0.40470 0.00000
C711 C 0.59109 0.84266 0.40479 0.00000
C712 C 0.59342 0.82355 0.42235 0.00000
C713 C 0.61359 0.82613 0.44009 0.00000
C714 C 0.56906 0.83902 0.38592 0.00000
O715 O 0.55462 0.81988 0.38518 0.00000
H716 H 0.63844 0.88055 0.42209 0.00000
H717 H 0.60656 0.87583 0.39240 0.00000
H718 H 0.58196 0.80919 0.42263 0.00000
H719 H 0.61537 0.81319 0.45218 0.00000
C720 C 0.15260 0.63380 0.43766 0.00000
C721 C 0.15763 0.63636 0.41332 0.00000
C722 C 0.15627 0.61490 0.39757 0.00000
C723 C 0.14900 0.59084 0.40547 0.00000
C724 C 0.14341 0.58703 0.42978 0.00000
C725 C 0.14525 0.60882 0.44585 0.00000
C726 C 0.14685 0.56670 0.38877 0.00000
O727 O 0.14163 0.54464 0.39606 0.00000
H728 H 0.16211 0.65287 0.40707 0.00000
H729 H 0.16048 0.61725 0.38102 0.00000
H730 H 0.13846 0.57047 0.43560 0.00000
H731 H 0.14148 0.60646 0.46250 0.00000
C732 C 0.42023 0.84575 0.61049 0.00000
C733 C 0.40212 0.82685 0.60563 0.00000
C734 C 0.38422 0.82961 0.58652 0.00000
C735 C 0.38458 0.85061 0.57141 0.00000
C736 C 0.40257 0.87023 0.57519 0.00000
C737 C 0.42047 0.86758 0.59492 0.00000
C738 C 0.36554 0.85434 0.54991 0.00000
O739 O 0.36491 0.87393 0.53702 0.00000
H740 H 0.40168 0.81172 0.61534 0.00000
H741 H 0.37160 0.81650 0.58407 0.00000
H742 H 0.40303 0.88498 0.56498 0.00000
H743 H 0.43285 0.88086 0.59769 0.00000
C744 C 0.15527 0.56732 0.62059 0.00000
C745 C 0.15033 0.56839 0.59614 0.00000
C746 C 0.15315 0.59168 0.58305 0.00000
C747 C 0.16179 0.61399 0.59373 0.00000
C748 C 0.16737 0.61413 0.61830 0.00000
C749 C 0.16405 0.59049 0.63167 0.00000
C750 C 0.16557 0.64001 0.58001 0.00000
O751 O 0.17204 0.66055 0.58986 0.00000
H752 H 0.14492 0.55316 0.58799 0.00000
H753 H 0.14896 0.59185 0.56635 0.00000
H754 H 0.17325 0.62943 0.62603 0.00000
H755 H 0.16779 0.59035 0.64847 0.00000
C756 C 0.37285 0.15701 0.57884 0.00000
C757 C 0.39258 0.13904 0.57918 0.00000
C758 C 0.41256 0.14028 0.59655 0.00000
C759 C 0.41282 0.15871 0.61434 0.00000
C760 C 0.39331 0.17725 0.61515 0.00000
C761 C 0.37323 0.17620 0.59718 0.00000
C762 C 0.43419 0.16065 0.63408 0.00000
O763 O 0.43524 0.17810 0.64940 0.00000
H764 H 0.39271 0.12560 0.56750 0.00000
H765 H 0.42619 0.12796 0.59587 0.00000
H766 H 0.39324 0.19023 0.62727 0.00000
H767 H 0.35981 0.18876 0.59754 0.00000
C768 C 0.36617 0.15737 0.43737 0.00000
C769 C 0.38486 0.17516 0.43100 0.00000
C770 C 0.40264 0.17005 0.41222 0.00000
C771 C 0.40160 0.14773 0.39890 0.00000
C772 C 0.38302 0.12910 0.40425 0.00000
C773 C 0.36523 0.13417 0.42367 0.00000
C774 C 0.42049 0.14138 0.37781 0.00000
O775 O 0.42049 0.12063 0.36658 0.00000
H776 H 0.38578 0.19112 0.43943 0.00000
H777 H 0.41565 0.18247 0.40872 0.00000
H778 H 0.38209 0.11346 0.39530 0.00000
H779 H 0.35246 0.12159 0.42750 0.00000
C780 C 0.62472 0.83765 0.57681 0.00000
C781 C 0.61871 0.82318 0.59696 0.00000
C782 C 0.59712 0.82928 0.61154 0.00000
C783 C 0.58064 0.84917 0.60592 0.00000
C784 C 0.58548 0.86436 0.58567 0.00000
C785 C 0.60773 0.85837 0.57110 0.00000
C786 C 0.55642 0.85642 0.62120 0.00000
O787 O 0.54227 0.87523 0.61691 0.00000
H788 H 0.62931 0.80885 0.60109 0.00000
H789 H 0.59394 0.81928 0.62562 0.00000
H790 H 0.57435 0.87830 0.58157 0.00000
H791 H 0.61123 0.86861 0.55723 0.00000
C792 C 0.43738 0.63250 0.87189 0.00000
C793 C 0.43140 0.61229 0.85661 0.00000
C794 C 0.40966 0.59634 0.86079 0.00000
C795 C 0.39300 0.60070 0.87961 0.00000
C796 C 0.39780 0.62096 0.89555 0.00000
C797 C 0.42021 0.63689 0.89147 0.00000
C798 C 0.36860 0.58391 0.88478 0.00000
O799 O 0.35428 0.58694 0.90250 0.00000
H800 H 0.44213 0.60907 0.84303 0.00000
H801 H 0.40649 0.58220 0.85024 0.00000
H802 H 0.38655 0.62419 0.90876 0.00000
H803 H 0.42369 0.65078 0.90224 0.00000
C804 C 0.62021 0.58553 0.12160 0.00000
C805 C 0.60061 0.58923 0.10506 0.00000
C806 C 0.58046 0.60712 0.10940 0.00000
C807 C 0.57990 0.62226 0.12971 0.00000
C808 C 0.59927 0.61964 0.14699 0.00000
C809 C 0.61952 0.60109 0.14272 0.00000
C810 C 0.55835 0.64249 0.13514 0.00000
O811 O 0.55703 0.65521 0.15406 0.00000
H812 H 0.60068 0.57955 0.09050 0.00000
H813 H 0.56693 0.60870 0.09788 0.00000
H814 H 0.59913 0.62988 0.16123 0.00000
H815 H 0.63285 0.59913 0.15439 0.00000
C816 C 0.41770 0.61772 0.12604 0.00000
C817 C 0.39959 0.61124 0.14330 0.00000
C818 C 0.38318 0.58961 0.14035 0.00000
C819 C 0.38505 0.57355 0.12074 0.00000
C820 C 0.40312 0.57888 0.10278 0.00000
C821 C 0.41950 0.60118 0.10564 0.00000
C822 C 0.36768 0.54929 0.11684 0.00000
O823 O 0.36837 0.53553 0.09852 0.00000
H824 H 0.39816 0.62154 0.15743 0.00000
H825 H 0.37050 0.58609 0.15233 0.00000
H826 H 0.40461 0.56804 0.08901 0.00000
H827 H 0.43191 0.60501 0.09350 0.00000
C828 C 0.38156 0.41660 0.12097 0.00000
C829 C 0.40770 0.42148 0.11873 0.00000
C830 C 0.42614 0.40142 0.12079 0.00000
C831 C 0.41899 0.37615 0.12420 0.00000
C832 C 0.39290 0.36989 0.12635 0.00000
C833 C 0.37419 0.39043 0.12467 0.00000
C834 C 0.43854 0.35333 0.12623 0.00000
O835 O 0.43223 0.33067 0.13059 0.00000
H836 H 0.41336 0.43866 0.11577 0.00000
H837 H 0.44401 0.40559 0.11975 0.00000
H838 H 0.38759 0.35251 0.12883 0.00000
H839 H 0.35631 0.38640 0.12611 0.00000
C840 C 0.36952 0.43924 0.87707 0.00000
C841 C 0.36794 0.41639 0.88986 0.00000
C842 C 0.38704 0.39698 0.88751 0.00000
C843 C 0.40841 0.40026 0.87319 0.00000
C844 C 0.41129 0.42300 0.86001 0.00000
C845 C 0.39159 0.44254 0.86211 0.00000
C846 C 0.43015 0.37962 0.87029 0.00000
O847 O 0.44879 0.38194 0.85637 0.00000
H848 H 0.35374 0.41368 0.90042 0.00000
H849 H 0.38499 0.38123 0.89614 0.00000
H850 H 0.42591 0.42555 0.84990 0.00000
H851 H 0.39334 0.45815 0.85319 0.00000
C852 C 0.56023 0.37019 0.87666 0.00000
C853 C 0.57999 0.37220 0.89330 0.00000
C854 C 0.60010 0.39045 0.89041 0.00000
C855 C 0.60048 0.40759 0.87154 0.00000
C856 C 0.58096 0.40675 0.85425 0.00000
C857 C 0.56074 0.38784 0.85702 0.00000
C858 C 0.62200 0.42829 0.86777 0.00000
O859 O 0.62315 0.44289 0.85004 0.00000
H860 H 0.58004 0.36107 0.90694 0.00000
H861 H 0.61373 0.39086 0.90191 0.00000
H862 H 0.58097 0.41838 0.84099 0.00000
H863 H 0.54731 0.38707 0.84533 0.00000
C864 C 0.84425 0.36991 0.44074 0.00000
C865 C 0.86211 0.38933 0.43697 0.00000
C866 C 0.86051 0.40578 0.41666 0.00000
C867 C 0.84073 0.40388 0.40027 0.00000
C868 C 0.82193 0.38485 0.40317 0.00000
C869 C 0.82387 0.36785 0.42366 0.00000
C870 C 0.83791 0.42178 0.37781 0.00000
O871 O 0.82085 0.41923 0.36226 0.00000
H872 H 0.87573 0.39165 0.44826 0.00000
H873 H 0.87350 0.41854 0.41432 0.00000
H874 H 0.80816 0.38317 0.39194 0.00000
H875 H 0.81115 0.35477 0.42583 0.00000
C876 C 0.15411 0.36547 0.56307 0.00000
C877 C 0.16927 0.36809 0.58342 0.00000
C878 C 0.16566 0.38888 0.59963 0.00000
C879 C 0.14643 0.40682 0.59644 0.00000
C880 C 0.13030 0.40512 0.57640 0.00000
C881 C 0.13431 0.38417 0.55970 0.00000
C882 C 0.14144 0.42984 0.61397 0.00000
O883 O 0.12498 0.44688 0.61047 0.00000
H884 H 0.18238 0.35566 0.58655 0.00000
H885 H 0.17688 0.39043 0.61314 0.00000
H886 H 0.11695 0.41744 0.57383 0.00000
H887 H 0.12341 0.38281 0.54594 0.00000
C888 C 0.63345 0.15775 0.56231 0.00000
C889 C 0.61222 0.17335 0.56634 0.00000
C890 C 0.59501 0.16850 0.58563 0.00000
C891 C 0.59904 0.14876 0.60172 0.00000
C892 C 0.62026 0.13248 0.59881 0.00000
C893 C 0.63750 0.13719 0.57890 0.00000
C894 C 0.58086 0.14287 0.62345 0.00000
O895 O 0.58367 0.12421 0.63727 0.00000
H896 H 0.60915 0.18761 0.55592 0.00000
H897 H 0.58024 0.17926 0.58751 0.00000
H898 H 0.62329 0.11863 0.60971 0.00000
H899 H 0.65205 0.12620 0.57672 0.00000
C900 C 0.84529 0.58223 0.61267 0.00000
C901 C 0.84609 0.60885 0.61421 0.00000
C902 C 0.84557 0.62448 0.59329 0.00000
C903 C 0.84330 0.61407 0.57063 0.00000
C904 C 0.84213 0.58733 0.56787 0.00000
C905 C 0.84312 0.57146 0.58918 0.00000
C906 C 0.84227 0.63048 0.54708 0.00000
O907 O 0.84161 0.62109 0.52649 0.00000
H908 H 0.84703 0.61680 0.62964 0.00000
H909 H 0.84680 0.64273 0.59500 0.00000
H910 H 0.84068 0.57977 0.55230 0.00000
H911 H 0.84234 0.55317 0.58752 0.00000
C912 C 0.03711 0.49631 0.66517 0.00000
C913 C 0.02056 0.50689 0.68203 0.00000
C914 C 0.99350 0.50704 0.67839 0.00000
C915 C 0.98236 0.49592 0.65848 0.00000
C916 C 0.99798 0.48468 0.64091 0.00000
C917 C 0.02555 0.48495 0.64447 0.00000
C918 C 0.95265 0.49527 0.65382 0.00000
O919 O 0.94260 0.48647 0.63524 0.00000
H920 H 0.02753 0.51421 0.69634 0.00000
H921 H 0.98274 0.51507 0.69010 0.00000
H922 H 0.99061 0.47700 0.62694 0.00000
H923 H 0.03642 0.47734 0.63259 0.00000
C924 C 0.50001 0.96272 0.33953 0.00000
C925 C 0.51154 0.98027 0.35491 0.00000
C926 C 0.50872 0.00721 0.35145 0.00000
C927 C 0.49373 0.01717 0.33328 0.00000
C928 C 0.48135 0.00010 0.31729 0.00000
C929 C 0.48463 0.97308 0.32062 0.00000
C930 C 0.48972 0.04667 0.32894 0.00000
O931 O 0.47731 0.05577 0.31178 0.00000
H932 H 0.52156 0.97408 0.36806 0.00000
H933 H 0.51746 0.01872 0.36204 0.00000
H934 H 0.47099 0.00705 0.30453 0.00000
H935 H 0.47628 0.96149 0.30981 0.00000
C936 C 0.03728 0.50000 0.33953 0.00000
C937 C 0.01974 0.51146 0.35496 0.00000
C938 C 0.99280 0.50866 0.35148 0.00000
C939 C 0.98283 0.49374 0.33326 0.00000
C940 C 0.99990 0.48144 0.31722 0.00000
C941 C 0.02692 0.48470 0.32055 0.00000
C942 C 0.95333 0.48976 0.32891 0.00000
O943 O 0.94422 0.47742 0.31170 0.00000
H944 H 0.02592 0.52142 0.36815 0.00000
H945 H 0.98128 0.51735 0.36211 0.00000
H946 H 0.99294 0.47114 0.30442 0.00000
H947 H 0.03850 0.47640 0.30971 0.00000
C948 C 0.67730 0.50263 0.03477 0.00000
C949 C 0.65702 0.49661 0.01958 0.00000
C950 C 0.66074 0.49407 0.99443 0.00000
C951 C 0.68469 0.49650 0.98404 0.00000
C952 C 0.70600 0.50230 0.99841 0.00000
C953 C 0.70207 0.50532 0.02397 0.00000
C954 C 0.68984 0.49351 0.95649 0.00000
O955 O 0.71121 0.49705 0.94688 0.00000
H956 H 0.64025 0.49415 0.02619 0.00000
H957 H 0.64622 0.49055 0.98444 0.00000
H958 H 0.72272 0.50418 0.99152 0.00000
H959 H 0.71648 0.50929 0.03397 0.00000
C960 C 0.49973 0.03729 0.66065 0.00000
C961 C 0.50938 0.01983 0.64411 0.00000
C962 C 0.50698 0.99287 0.64771 0.00000
C963 C 0.49420 0.98280 0.66725 0.00000
C964 C 0.48378 0.99990 0.68449 0.00000
C965 C 0.48665 0.02683 0.68097 0.00000
C966 C 0.49072 0.95328 0.67184 0.00000
O967 O 0.48039 0.94409 0.69013 0.00000
H968 H 0.51780 0.02609 0.63004 0.00000
H969 H 0.51442 0.98141 0.63624 0.00000
H970 H 0.47498 0.99277 0.69820 0.00000
H971 H 0.47962 0.03835 0.69262 0.00000
C972 C 0.31218 0.96314 0.49448 0.00000
C973 C 0.30036 0.98159 0.48025 0.00000
C974 C 0.30186 0.00818 0.48600 0.00000
C975 C 0.31583 0.01699 0.50536 0.00000
C976 C 0.32844 0.99990 0.52028 0.00000
C977 C 0.32650 0.97229 0.51462 0.00000
C978 C 0.31837 0.04610 0.51222 0.00000
O979 O 0.32983 0.05404 0.53043 0.00000
H980 H 0.29103 0.97627 0.46635 0.00000
H981 H 0.29294 0.02029 0.47613 0.00000
H982 H 0.33810 0.00513 0.53384 0.00000
H983 H 0.33503 0.96008 0.52469 0.00000
C984 C 0.96310 0.69189 0.49497 0.00000
C985 C 0.97920 0.71020 0.50509 0.00000
C986 C 0.00621 0.70627 0.50645 0.00000
C987 C 0.01779 0.68465 0.49704 0.00000
C988 C 0.00265 0.66556 0.48635 0.00000
C989 C 0.97510 0.66941 0.48538 0.00000
C990 C 0.04749 0.67961 0.49778 0.00000
O991 O 0.05788 0.65947 0.49046 0.00000
H992 H 0.97195 0.72573 0.51127 0.00000
H993 H 0.01664 0.71901 0.51409 0.00000
H994 H 0.01032 0.65039 0.47985 0.00000
H995 H 0.96455 0.65651 0.47812 0.00000
C996 C 0.69161 0.03730 0.49909 0.00000
C997 C 0.68209 0.02199 0.51745 0.00000
C998 C 0.68308 0.99471 0.51605 0.00000
C999 C 0.69434 0.98220 0.49693 0.00000
C1000 C 0.70455 0.99654 0.47793 0.00000
C1001 C 0.70311 0.02431 0.47921 0.00000
C1002 C 0.69624 0.95222 0.49474 0.00000
O1003 O 0.70516 0.94082 0.47689 0.00000
H1004 H 0.67472 0.02997 0.53126 0.00000
H1005 H 0.67576 0.98477 0.52876 0.00000
H1006 H 0.71231 0.98820 0.46448 0.00000
H1007 H 0.71002 0.03432 0.46634 0.00000
C1008 C 0.96280 0.30756 0.50198 0.00000
C1009 C 0.97790 0.30810 0.48145 0.00000
C1010 C 0.00519 0.30893 0.48288 0.00000
C1011 C 0.01795 0.30829 0.50456 0.00000
C1012 C 0.00383 0.30747 0.52594 0.00000
C1013 C 0.97604 0.30708 0.52443 0.00000
C1014 C 0.04795 0.30879 0.50706 0.00000
O1015 O 0.05952 0.30961 0.52665 0.00000
H1016 H 0.96977 0.30791 0.46609 0.00000
H1017 H 0.01495 0.30993 0.46838 0.00000
H1018 H 0.01233 0.30715 0.54113 0.00000
H1019 H 0.96619 0.30653 0.53891 0.00000
C1020 C 0.49245 0.68040 0.03406 0.00000
C1021 C 0.50553 0.69802 0.01989 0.00000
C1022 C 0.50842 0.69417 0.99478 0.00000
C1023 C 0.49764 0.67336 0.98320 0.00000
C1024 C 0.48397 0.65500 0.99644 0.00000
C1025 C 0.48144 0.65875 0.02207 0.00000
C1026 C 0.49996 0.66846 0.95555 0.00000
O1027 O 0.49143 0.64896 0.94523 0.00000
H1028 H 0.51272 0.71301 0.02718 0.00000
H1029 H 0.51809 0.70638 0.98568 0.00000
H1030 H 0.47648 0.64040 0.98875 0.00000
H1031 H 0.47215 0.64635 0.03131 0.00000
C1032 C 0.31999 0.49665 0.03467 0.00000
C1033 C 0.32932 0.51736 0.02158 0.00000
C1034 C 0.32836 0.51758 0.99610 0.00000
C1035 C 0.31735 0.49779 0.98322 0.00000
C1036 C 0.30734 0.47644 0.99536 0.00000
C1037 C 0.30875 0.47608 0.02130 0.00000
C1038 C 0.31550 0.49731 0.95517 0.00000
O1039 O 0.30681 0.47884 0.94342 0.00000
H1040 H 0.33651 0.53171 0.02990 0.00000
H1041 H 0.33555 0.53188 0.98766 0.00000
H1042 H 0.29975 0.46250 0.98674 0.00000
H1043 H 0.30198 0.46160 0.02979 0.00000
C1044 C 0.50378 0.32456 0.03460 0.00000
C1045 C 0.51178 0.34213 0.01741 0.00000
C1046 C 0.50643 0.33828 0.99265 0.00000
C1047 C 0.49231 0.31754 0.98464 0.00000
C1048 C 0.48345 0.29924 0.00112 0.00000
C1049 C 0.48931 0.30298 0.02627 0.00000
C1050 C 0.48560 0.31265 0.95762 0.00000
O1051 O 0.47404 0.29321 0.95018 0.00000
H1052 H 0.52106 0.35708 0.02233 0.00000
H1053 H 0.51279 0.35045 0.98125 0.00000
H1054 H 0.47375 0.28468 0.99589 0.00000
H1055 H 0.48336 0.29062 0.03769 0.00000
C1056 C 0.74513 0.49112 0.79895 0.00000
C1057 C 0.75364 0.47235 0.78313 0.00000
C1058 C 0.76535 0.47897 0.76093 0.00000
C1059 C 0.76966 0.50419 0.75444 0.00000
C1060 C 0.76176 0.52406 0.76971 0.00000
C1061 C 0.74944 0.51726 0.79212 0.00000
C1062 C 0.78281 0.51246 0.73035 0.00000
O1063 O 0.78549 0.53525 0.72384 0.00000
H1064 H 0.75157 0.45464 0.78728 0.00000
H1065 H 0.77040 0.46553 0.75022 0.00000
H1066 H 0.76447 0.54165 0.76546 0.00000
H1067 H 0.74395 0.53065 0.80270 0.00000
C1068 C 0.49783 0.22109 0.26221 0.00000
C1069 C 0.48197 0.23922 0.25147 0.00000
C1070 C 0.48849 0.25060 0.22909 0.00000
C1071 C 0.51027 0.24354 0.21660 0.00000
C1072 C 0.52694 0.22515 0.22633 0.00000
C1073 C 0.52047 0.21393 0.24932 0.00000
C1074 C 0.51809 0.25523 0.19174 0.00000
O1075 O 0.53845 0.24991 0.18100 0.00000
H1076 H 0.46639 0.24413 0.25931 0.00000
H1077 H 0.47744 0.26349 0.22252 0.00000
H1078 H 0.54218 0.22011 0.21799 0.00000
H1079 H 0.53171 0.20135 0.25615 0.00000
C1080 C 0.74018 0.50589 0.20319 0.00000
C1081 C 0.75159 0.48434 0.21332 0.00000
C1082 C 0.76438 0.48568 0.23582 0.00000
C1083 C 0.76526 0.50808 0.24904 0.00000
C1084 C 0.75387 0.53045 0.23995 0.00000
C1085 C 0.74125 0.52913 0.21683 0.00000
C1086 C 0.77877 0.51044 0.27407 0.00000
O1087 O 0.78080 0.53098 0.28547 0.00000
H1088 H 0.75083 0.46831 0.20497 0.00000
H1089 H 0.77258 0.47060 0.24197 0.00000
H1090 H 0.75440 0.54618 0.24880 0.00000
H1091 H 0.73341 0.54428 0.21043 0.00000
C1092 C 0.50236 0.77575 0.26375 0.00000
C1093 C 0.49694 0.75012 0.25899 0.00000
C1094 C 0.49405 0.74106 0.23508 0.00000
C1095 C 0.49741 0.75697 0.21553 0.00000
C1096 C 0.50317 0.78300 0.21911 0.00000
C1097 C 0.50566 0.79226 0.24349 0.00000
C1098 C 0.49481 0.74783 0.18886 0.00000
O1099 O 0.49647 0.76245 0.17118 0.00000
H1100 H 0.49510 0.73838 0.27205 0.00000
H1101 H 0.48969 0.72342 0.23249 0.00000
H1102 H 0.50544 0.79433 0.20579 0.00000
H1103 H 0.50958 0.80999 0.24617 0.00000
C1104 C 0.22097 0.50207 0.26216 0.00000
C1105 C 0.23829 0.51845 0.25097 0.00000
C1106 C 0.24985 0.51187 0.22869 0.00000
C1107 C 0.24374 0.48947 0.21673 0.00000
C1108 C 0.22619 0.47223 0.22694 0.00000
C1109 C 0.21480 0.47878 0.24983 0.00000
C1110 C 0.25566 0.48155 0.19199 0.00000
O1111 O 0.25124 0.46068 0.18175 0.00000
H1112 H 0.24252 0.53445 0.25842 0.00000
H1113 H 0.26218 0.52333 0.22180 0.00000
H1114 H 0.22182 0.45656 0.21897 0.00000
H1115 H 0.20279 0.46716 0.25699 0.00000
C1116 C 0.49885 0.77482 0.73565 0.00000
C1117 C 0.51403 0.75384 0.74170 0.00000
C1118 C 0.51483 0.74427 0.76558 0.00000
C1119 C 0.49995 0.75468 0.78361 0.00000
C1120 C 0.48401 0.77572 0.77863 0.00000
C1121 C 0.48358 0.78570 0.75439 0.00000
C1122 C 0.49987 0.74459 0.81009 0.00000
O1123 O 0.48750 0.75482 0.82672 0.00000
H1124 H 0.52412 0.74570 0.72956 0.00000
H1125 H 0.52599 0.73019 0.76922 0.00000
H1126 H 0.47367 0.78327 0.79091 0.00000
H1127 H 0.47278 0.80007 0.75077 0.00000
C1128 C 0.21390 0.73406 0.50563 0.00000
C1129 C 0.23171 0.74321 0.52209 0.00000
C1130 C 0.25020 0.76209 0.51558 0.00000
C1131 C 0.25075 0.77288 0.49298 0.00000
C1132 C 0.23312 0.76468 0.47561 0.00000
C1133 C 0.21461 0.74512 0.48218 0.00000
C1134 C 0.27049 0.79400 0.48505 0.00000
O1135 O 0.27193 0.80280 0.46427 0.00000
H1136 H 0.23152 0.73665 0.53810 0.00000
H1137 H 0.26259 0.76748 0.52722 0.00000
H1138 H 0.23330 0.77185 0.45982 0.00000
H1139 H 0.20247 0.73936 0.47046 0.00000
C1140 C 0.78310 0.26958 0.50180 0.00000
C1141 C 0.77827 0.25345 0.48248 0.00000
C1142 C 0.75848 0.23461 0.48341 0.00000
C1143 C 0.74260 0.23208 0.50308 0.00000
C1144 C 0.74629 0.24795 0.52307 0.00000
C1145 C 0.76674 0.26681 0.52223 0.00000
C1146 C 0.72031 0.21189 0.50482 0.00000
O1147 O 0.70681 0.20860 0.52306 0.00000
H1148 H 0.78846 0.25507 0.46830 0.00000
H1149 H 0.75612 0.22341 0.46999 0.00000
H1150 H 0.73555 0.24638 0.53690 0.00000
H1151 H 0.76945 0.27776 0.53578 0.00000
C1152 C 0.73375 0.78572 0.50608 0.00000
C1153 C 0.73982 0.76511 0.52086 0.00000
C1154 C 0.75934 0.74723 0.51449 0.00000
C1155 C 0.77377 0.74998 0.49389 0.00000
C1156 C 0.76878 0.77052 0.47833 0.00000
C1157 C 0.74859 0.78844 0.48466 0.00000
C1158 C 0.79571 0.73102 0.48627 0.00000
O1159 O 0.80785 0.73266 0.46703 0.00000
H1160 H 0.73068 0.76293 0.53558 0.00000
H1161 H 0.76257 0.73291 0.52482 0.00000
H1162 H 0.77849 0.77266 0.46392 0.00000
H1163 H 0.74500 0.80255 0.47417 0.00000
C1164 C 0.21697 0.26963 0.49812 0.00000
C1165 C 0.22231 0.25407 0.51772 0.00000
C1166 C 0.24199 0.23511 0.51677 0.00000
C1167 C 0.25727 0.23191 0.49677 0.00000
C1168 C 0.25304 0.24720 0.47647 0.00000
C1169 C 0.23269 0.26618 0.47735 0.00000
C1170 C 0.27941 0.21157 0.49497 0.00000
O1171 O 0.29235 0.20768 0.47648 0.00000
H1172 H 0.21255 0.25615 0.53211 0.00000
H1173 H 0.24470 0.22430 0.53041 0.00000
H1174 H 0.26335 0.24517 0.46241 0.00000
H1175 H 0.22962 0.27673 0.46359 0.00000
C1176 C 0.22136 0.49763 0.73768 0.00000
C1177 C 0.24115 0.48310 0.74744 0.00000
C1178 C 0.25215 0.48945 0.77002 0.00000
C1179 C 0.24313 0.50966 0.78367 0.00000
C1180 C 0.22301 0.52491 0.77494 0.00000
C1181 C 0.21215 0.51866 0.75175 0.00000
C1182 C 0.25435 0.51719 0.80879 0.00000
O1183 O 0.24717 0.53627 0.82058 0.00000
H1184 H 0.24749 0.46857 0.73879 0.00000
H1185 H 0.26619 0.47940 0.77592 0.00000
H1186 H 0.21659 0.53906 0.78409 0.00000
H1187 H 0.19840 0.52894 0.74560 0.00000
C1188 C 0.50202 0.22462 0.73602 0.00000
C1189 C 0.49308 0.24922 0.74093 0.00000
C1190 C 0.49092 0.25834 0.76489 0.00000
C1191 C 0.49843 0.24365 0.78426 0.00000
C1192 C 0.50788 0.21876 0.78051 0.00000
C1193 C 0.50963 0.20936 0.75612 0.00000
C1194 C 0.49678 0.25297 0.81095 0.00000
O1195 O 0.50225 0.23925 0.82858 0.00000
H1196 H 0.48829 0.26019 0.72794 0.00000
H1197 H 0.48408 0.27515 0.76763 0.00000
H1198 H 0.51306 0.20826 0.79372 0.00000
H1199 H 0.51605 0.19239 0.75333 0.00000
loop_
_geom_bond_atom_site_label_1
_geom_bond_atom_site_label_2
_geom_bond_distance
_geom_bond_site_symmetry_2
_ccdc_geom_bond_type
O0 Zn6 2.282 . S
O0 C16 1.225 . A
O1 Zn8 1.972 . S
O1 C19 1.251 . A
O2 Zn6 1.963 . S
O2 C17 1.263 . A
O3 Zn9 1.932 . S
O3 C20 1.270 . A
O4 Zn9 1.971 . S
O4 C22 1.264 . A
O5 Zn6 1.949 . S
O5 Zn7 1.915 . S
O5 Zn8 1.963 . S
O5 Zn9 1.918 . S
Zn6 O10 2.105 . S
Zn6 O23 1.937 . S
Zn7 O11 1.944 . S
Zn7 O12 1.958 . S
Zn7 O15 1.978 . S
Zn8 O14 2.107 . S
Zn8 O24 2.258 . S
Zn8 O25 1.943 . S
Zn9 O13 1.963 . S
O10 C20 1.238 . A
O11 C18 1.252 . A
O12 C17 1.261 . A
O13 C19 1.257 . A
O14 C18 1.240 . A
O15 C22 1.258 . A
C16 O25 1.283 . A
C21 O23 1.265 . A
C21 O24 1.229 . A
O26 Zn32 2.282 . S
O26 C42 1.225 . A
O27 Zn34 1.972 . S
O27 C45 1.251 . A
O28 Zn32 1.963 . S
O28 C43 1.263 . A
O29 Zn35 1.932 . S
O29 C46 1.270 . A
O30 Zn35 1.971 . S
O30 C48 1.264 . A
O31 Zn32 1.949 . S
O31 Zn33 1.915 . S
O31 Zn34 1.963 . S
O31 Zn35 1.918 . S
Zn32 O36 2.105 . S
Zn32 O49 1.937 . S
Zn33 O37 1.944 . S
Zn33 O38 1.958 . S
Zn33 O41 1.978 . S
Zn34 O40 2.107 . S
Zn34 O50 2.258 . S
Zn34 O51 1.943 . S
Zn35 O39 1.963 . S
O36 C46 1.238 . A
O37 C44 1.252 . A
O38 C43 1.261 . A
O39 C45 1.257 . A
O40 C44 1.240 . A
O41 C48 1.258 . A
C42 O51 1.283 . A
C47 O49 1.265 . A
C47 O50 1.229 . A
O52 Zn58 2.282 . S
O52 C68 1.225 . A
O53 Zn60 1.972 . S
O53 C71 1.251 . A
O54 Zn58 1.963 . S
O54 C69 1.263 . A
O55 Zn61 1.932 . S
O55 C72 1.270 . A
O56 Zn61 1.971 . S
O56 C74 1.264 . A
O57 Zn58 1.949 . S
O57 Zn59 1.915 . S
O57 Zn60 1.963 . S
O57 Zn61 1.918 . S
Zn58 O62 2.105 . S
Zn58 O75 1.937 . S
Zn59 O63 1.944 . S
Zn59 O64 1.958 . S
Zn59 O67 1.978 . S
Zn60 O66 2.107 . S
Zn60 O76 2.258 . S
Zn60 O77 1.943 . S
Zn61 O65 1.963 . S
O62 C72 1.238 . A
O63 C70 1.252 . A
O64 C69 1.261 . A
O65 C71 1.257 . A
O66 C70 1.240 . A
O67 C74 1.258 . A
C68 O77 1.283 . A
C73 O75 1.265 . A
C73 O76 1.229 . A
O78 Zn84 2.282 . S
O78 C94 1.225 . A
O79 Zn86 1.972 . S
O79 C97 1.251 . A
O80 Zn84 1.963 . S
O80 C95 1.263 . A
O81 Zn87 1.932 . S
O81 C98 1.270 . A
O82 Zn87 1.971 . S
O82 C100 1.264 . A
O83 Zn84 1.949 . S
O83 Zn85 1.915 . S
O83 Zn86 1.963 . S
O83 Zn87 1.918 . S
Zn84 O88 2.105 . S
Zn84 O101 1.937 . S
Zn85 O89 1.944 . S
Zn85 O90 1.958 . S
Zn85 O93 1.978 . S
Zn86 O92 2.107 . S
Zn86 O102 2.258 . S
Zn86 O103 1.943 . S
Zn87 O91 1.963 . S
O88 C98 1.238 . A
O89 C96 1.252 . A
O90 C95 1.261 . A
O91 C97 1.257 . A
O92 C96 1.240 . A
O93 C100 1.258 . A
C94 O103 1.283 . A
C99 O101 1.265 . A
C99 O102 1.229 . A
O104 Zn110 2.282 . S
O104 C120 1.225 . A
O105 Zn112 1.972 . S
O105 C123 1.251 . A
O106 Zn110 1.963 . S
O106 C121 1.263 . A
O107 Zn113 1.932 . S
O107 C124 1.270 . A
O108 Zn113 1.971 . S
O108 C126 1.264 . A
O109 Zn110 1.949 . S
O109 Zn111 1.915 . S
O109 Zn112 1.963 . S
O109 Zn113 1.918 . S
Zn110 O114 2.105 . S
Zn110 O127 1.937 . S
Zn111 O115 1.944 . S
Zn111 O116 1.958 . S
Zn111 O119 1.978 . S
Zn112 O118 2.107 . S
Zn112 O128 2.258 . S
Zn112 O129 1.943 . S
Zn113 O117 1.963 . S
O114 C124 1.238 . A
O115 C122 1.252 . A
O116 C121 1.261 . A
O117 C123 1.257 . A
O118 C122 1.240 . A
O119 C126 1.258 . A
C120 O129 1.283 . A
C125 O127 1.265 . A
C125 O128 1.229 . A
O130 Zn136 2.282 . S
O130 C146 1.225 . A
O131 Zn138 1.972 . S
O131 C149 1.251 . A
O132 Zn136 1.963 . S
O132 C147 1.263 . A
O133 Zn139 1.932 . S
O133 C150 1.270 . A
O134 Zn139 1.971 . S
O134 C152 1.264 . A
O135 Zn136 1.949 . S
O135 Zn137 1.915 . S
O135 Zn138 1.963 . S
O135 Zn139 1.918 . S
Zn136 O140 2.105 . S
Zn136 O153 1.937 . S
Zn137 O141 1.944 . S
Zn137 O142 1.958 . S
Zn137 O145 1.978 . S
Zn138 O144 2.107 . S
Zn138 O154 2.258 . S
Zn138 O155 1.943 . S
Zn139 O143 1.963 . S
O140 C150 1.238 . A
O141 C148 1.252 . A
O142 C147 1.261 . A
O143 C149 1.257 . A
O144 C148 1.240 . A
O145 C152 1.258 . A
C146 O155 1.283 . A
C151 O153 1.265 . A
C151 O154 1.229 . A
O156 Zn162 2.282 . S
O156 C172 1.225 . A
O157 Zn164 1.972 . S
O157 C175 1.251 . A
O158 Zn162 1.963 . S
O158 C173 1.263 . A
O159 Zn165 1.932 . S
O159 C176 1.270 . A
O160 Zn165 1.971 . S
O160 C178 1.264 . A
O161 Zn162 1.949 . S
O161 Zn163 1.915 . S
O161 Zn164 1.963 . S
O161 Zn165 1.918 . S
Zn162 O166 2.105 . S
Zn162 O179 1.937 . S
Zn163 O167 1.944 . S
Zn163 O168 1.958 . S
Zn163 O171 1.978 . S
Zn164 O170 2.107 . S
Zn164 O180 2.258 . S
Zn164 O181 1.943 . S
Zn165 O169 1.963 . S
O166 C176 1.238 . A
O167 C174 1.252 . A
O168 C173 1.261 . A
O169 C175 1.257 . A
O170 C174 1.240 . A
O171 C178 1.258 . A
C172 O181 1.283 . A
C177 O179 1.265 . A
C177 O180 1.229 . A
O182 Zn188 2.282 . S
O182 C198 1.225 . A
O183 Zn190 1.972 . S
O183 C201 1.251 . A
O184 Zn188 1.963 . S
O184 C199 1.263 . A
O185 Zn191 1.932 . S
O185 C202 1.270 . A
O186 Zn191 1.971 . S
O186 C204 1.264 . A
O187 Zn188 1.949 . S
O187 Zn189 1.915 . S
O187 Zn190 1.963 . S
O187 Zn191 1.918 . S
Zn188 O192 2.105 . S
Zn188 O205 1.937 . S
Zn189 O193 1.944 . S
Zn189 O194 1.958 . S
Zn189 O197 1.978 . S
Zn190 O196 2.107 . S
Zn190 O206 2.258 . S
Zn190 O207 1.943 . S
Zn191 O195 1.963 . S
O192 C202 1.238 . A
O193 C200 1.252 . A
O194 C199 1.261 . A
O195 C201 1.257 . A
O196 C200 1.240 . A
O197 C204 1.258 . A
C198 O207 1.283 . A
C203 O205 1.265 . A
C203 O206 1.229 . A
O208 Zn214 2.282 . S
O208 C224 1.225 . A
O209 Zn216 1.972 . S
O209 C227 1.251 . A
O210 Zn214 1.963 . S
O210 C225 1.263 . A
O211 Zn217 1.932 . S
O211 C228 1.270 . A
O212 Zn217 1.971 . S
O212 C230 1.264 . A
O213 Zn214 1.949 . S
O213 Zn215 1.915 . S
O213 Zn216 1.963 . S
O213 Zn217 1.918 . S
Zn214 O218 2.105 . S
Zn214 O231 1.937 . S
Zn215 O219 1.944 . S
Zn215 O220 1.958 . S
Zn215 O223 1.978 . S
Zn216 O222 2.107 . S
Zn216 O232 2.258 . S
Zn216 O233 1.943 . S
Zn217 O221 1.963 . S
O218 C228 1.238 . A
O219 C226 1.252 . A
O220 C225 1.261 . A
O221 C227 1.257 . A
O222 C226 1.240 . A
O223 C230 1.258 . A
C224 O233 1.283 . A
C229 O231 1.265 . A
C229 O232 1.229 . A
O234 Zn240 2.282 . S
O234 C250 1.225 . A
O235 Zn242 1.972 . S
O235 C253 1.251 . A
O236 Zn240 1.963 . S
O236 C251 1.263 . A
O237 Zn243 1.932 . S
O237 C254 1.270 . A
O238 Zn243 1.971 . S
O238 C256 1.264 . A
O239 Zn240 1.949 . S
O239 Zn241 1.915 . S
O239 Zn242 1.963 . S
O239 Zn243 1.918 . S
Zn240 O244 2.105 . S
Zn240 O257 1.937 . S
Zn241 O245 1.944 . S
Zn241 O246 1.958 . S
Zn241 O249 1.978 . S
Zn242 O248 2.107 . S
Zn242 O258 2.258 . S
Zn242 O259 1.943 . S
Zn243 O247 1.963 . S
O244 C254 1.238 . A
O245 C252 1.252 . A
O246 C251 1.261 . A
O247 C253 1.257 . A
O248 C252 1.240 . A
O249 C256 1.258 . A
C250 O259 1.283 . A
C255 O257 1.265 . A
C255 O258 1.229 . A
O260 Zn266 2.282 . S
O260 C276 1.225 . A
O261 Zn268 1.972 . S
O261 C279 1.251 . A
O262 Zn266 1.963 . S
O262 C277 1.263 . A
O263 Zn269 1.932 . S
O263 C280 1.270 . A
O264 Zn269 1.971 . S
O264 C282 1.264 . A
O265 Zn266 1.949 . S
O265 Zn267 1.915 . S
O265 Zn268 1.963 . S
O265 Zn269 1.918 . S
Zn266 O270 2.105 . S
Zn266 O283 1.937 . S
Zn267 O271 1.944 . S
Zn267 O272 1.958 . S
Zn267 O275 1.978 . S
Zn268 O274 2.107 . S
Zn268 O284 2.258 . S
Zn268 O285 1.943 . S
Zn269 O273 1.963 . S
O270 C280 1.238 . A
O271 C278 1.252 . A
O272 C277 1.261 . A
O273 C279 1.257 . A
O274 C278 1.240 . A
O275 C282 1.258 . A
C276 O285 1.283 . A
C281 O283 1.265 . A
C281 O284 1.229 . A
O286 Zn292 2.282 . S
O286 C302 1.225 . A
O287 Zn294 1.972 . S
O287 C305 1.251 . A
O288 Zn292 1.963 . S
O288 C303 1.263 . A
O289 Zn295 1.932 . S
O289 C306 1.270 . A
O290 Zn295 1.971 . S
O290 C308 1.264 . A
O291 Zn292 1.949 . S
O291 Zn293 1.915 . S
O291 Zn294 1.963 . S
O291 Zn295 1.918 . S
Zn292 O296 2.105 . S
Zn292 O309 1.937 . S
Zn293 O297 1.944 . S
Zn293 O298 1.958 . S
Zn293 O301 1.978 . S
Zn294 O300 2.107 . S
Zn294 O310 2.258 . S
Zn294 O311 1.943 . S
Zn295 O299 1.963 . S
O296 C306 1.238 . A
O297 C304 1.252 . A
O298 C303 1.261 . A
O299 C305 1.257 . A
O300 C304 1.240 . A
O301 C308 1.258 . A
C302 O311 1.283 . A
C307 O309 1.265 . A
C307 O310 1.229 . A
O312 Zn318 2.282 . S
O312 C328 1.225 . A
O313 Zn320 1.972 . S
O313 C331 1.251 . A
O314 Zn318 1.963 . S
O314 C329 1.263 . A
O315 Zn321 1.932 . S
O315 C332 1.270 . A
O316 Zn321 1.971 . S
O316 C334 1.264 . A
O317 Zn318 1.949 . S
O317 Zn319 1.915 . S
O317 Zn320 1.963 . S
O317 Zn321 1.918 . S
Zn318 O322 2.105 . S
Zn318 O335 1.937 . S
Zn319 O323 1.944 . S
Zn319 O324 1.958 . S
Zn319 O327 1.978 . S
Zn320 O326 2.107 . S
Zn320 O336 2.258 . S
Zn320 O337 1.943 . S
Zn321 O325 1.963 . S
O322 C332 1.238 . A
O323 C330 1.252 . A
O324 C329 1.261 . A
O325 C331 1.257 . A
O326 C330 1.240 . A
O327 C334 1.258 . A
C328 O337 1.283 . A
C333 O335 1.265 . A
C333 O336 1.229 . A
O338 Zn344 2.282 . S
O338 C354 1.225 . A
O339 Zn346 1.972 . S
O339 C357 1.251 . A
O340 Zn344 1.963 . S
O340 C355 1.263 . A
O341 Zn347 1.932 . S
O341 C358 1.270 . A
O342 Zn347 1.971 . S
O342 C360 1.264 . A
O343 Zn344 1.949 . S
O343 Zn345 1.915 . S
O343 Zn346 1.963 . S
O343 Zn347 1.918 . S
Zn344 O348 2.105 . S
Zn344 O361 1.937 . S
Zn345 O349 1.944 . S
Zn345 O350 1.958 . S
Zn345 O353 1.978 . S
Zn346 O352 2.107 . S
Zn346 O362 2.258 . S
Zn346 O363 1.943 . S
Zn347 O351 1.963 . S
O348 C358 1.238 . A
O349 C356 1.252 . A
O350 C355 1.261 . A
O351 C357 1.257 . A
O352 C356 1.240 . A
O353 C360 1.258 . A
C354 O363 1.283 . A
C359 O361 1.265 . A
C359 O362 1.229 . A
O364 Zn370 2.282 . S
O364 C380 1.225 . A
O365 Zn372 1.972 . S
O365 C383 1.251 . A
O366 Zn370 1.963 . S
O366 C381 1.263 . A
O367 Zn373 1.932 . S
O367 C384 1.270 . A
O368 Zn373 1.971 . S
O368 C386 1.264 . A
O369 Zn370 1.949 . S
O369 Zn371 1.915 . S
O369 Zn372 1.963 . S
O369 Zn373 1.918 . S
Zn370 O374 2.105 . S
Zn370 O387 1.937 . S
Zn371 O375 1.944 . S
Zn371 O376 1.958 . S
Zn371 O379 1.978 . S
Zn372 O378 2.107 . S
Zn372 O388 2.258 . S
Zn372 O389 1.943 . S
Zn373 O377 1.963 . S
O374 C384 1.238 . A
O375 C382 1.252 . A
O376 C381 1.261 . A
O377 C383 1.257 . A
O378 C382 1.240 . A
O379 C386 1.258 . A
C380 O389 1.283 . A
C385 O387 1.265 . A
C385 O388 1.229 . A
O390 Zn396 2.282 . S
O390 C406 1.225 . A
O391 Zn398 1.972 . S
O391 C409 1.251 . A
O392 Zn396 1.963 . S
O392 C407 1.263 . A
O393 Zn399 1.932 . S
O393 C410 1.270 . A
O394 Zn399 1.971 . S
O394 C412 1.264 . A
O395 Zn396 1.949 . S
O395 Zn397 1.915 . S
O395 Zn398 1.963 . S
O395 Zn399 1.918 . S
Zn396 O400 2.105 . S
Zn396 O413 1.937 . S
Zn397 O401 1.944 . S
Zn397 O402 1.958 . S
Zn397 O405 1.978 . S
Zn398 O404 2.107 . S
Zn398 O414 2.258 . S
Zn398 O415 1.943 . S
Zn399 O403 1.963 . S
O400 C410 1.238 . A
O401 C408 1.252 . A
O402 C407 1.261 . A
O403 C409 1.257 . A
O404 C408 1.240 . A
O405 C412 1.258 . A
C406 O415 1.283 . A
C411 O413 1.265 . A
C411 O414 1.229 . A
O416 Zn422 2.282 . S
O416 C432 1.225 . A
O417 Zn424 1.972 . S
O417 C435 1.251 . A
O418 Zn422 1.963 . S
O418 C433 1.263 . A
O419 Zn425 1.932 . S
O419 C436 1.270 . A
O420 Zn425 1.971 . S
O420 C438 1.264 . A
O421 Zn422 1.949 . S
O421 Zn423 1.915 . S
O421 Zn424 1.963 . S
O421 Zn425 1.918 . S
Zn422 O426 2.105 . S
Zn422 O439 1.937 . S
Zn423 O427 1.944 . S
Zn423 O428 1.958 . S
Zn423 O431 1.978 . S
Zn424 O430 2.107 . S
Zn424 O440 2.258 . S
Zn424 O441 1.943 . S
Zn425 O429 1.963 . S
O426 C436 1.238 . A
O427 C434 1.252 . A
O428 C433 1.261 . A
O429 C435 1.257 . A
O430 C434 1.240 . A
O431 C438 1.258 . A
C432 O441 1.283 . A
C437 O439 1.265 . A
C437 O440 1.229 . A
O442 Zn448 2.282 . S
O442 C458 1.225 . A
O443 Zn450 1.972 . S
O443 C461 1.251 . A
O444 Zn448 1.963 . S
O444 C459 1.263 . A
O445 Zn451 1.932 . S
O445 C462 1.270 . A
O446 Zn451 1.971 . S
O446 C464 1.264 . A
O447 Zn448 1.949 . S
O447 Zn449 1.915 . S
O447 Zn450 1.963 . S
O447 Zn451 1.918 . S
Zn448 O452 2.105 . S
Zn448 O465 1.937 . S
Zn449 O453 1.944 . S
Zn449 O454 1.958 . S
Zn449 O457 1.978 . S
Zn450 O456 2.107 . S
Zn450 O466 2.258 . S
Zn450 O467 1.943 . S
Zn451 O455 1.963 . S
O452 C462 1.238 . A
O453 C460 1.252 . A
O454 C459 1.261 . A
O455 C461 1.257 . A
O456 C460 1.240 . A
O457 C464 1.258 . A
C458 O467 1.283 . A
C463 O465 1.265 . A
C463 O466 1.229 . A
O468 Zn474 2.282 . S
O468 C484 1.225 . A
O469 Zn476 1.972 . S
O469 C487 1.251 . A
O470 Zn474 1.963 . S
O470 C485 1.263 . A
O471 Zn477 1.932 . S
O471 C488 1.270 . A
O472 Zn477 1.971 . S
O472 C490 1.264 . A
O473 Zn474 1.949 . S
O473 Zn475 1.915 . S
O473 Zn476 1.963 . S
O473 Zn477 1.918 . S
Zn474 O478 2.105 . S
Zn474 O491 1.937 . S
Zn475 O479 1.944 . S
Zn475 O480 1.958 . S
Zn475 O483 1.978 . S
Zn476 O482 2.107 . S
Zn476 O492 2.258 . S
Zn476 O493 1.943 . S
Zn477 O481 1.963 . S
O478 C488 1.238 . A
O479 C486 1.252 . A
O480 C485 1.261 . A
O481 C487 1.257 . A
O482 C486 1.240 . A
O483 C490 1.258 . A
C484 O493 1.283 . A
C489 O491 1.265 . A
C489 O492 1.229 . A
O494 Zn500 2.282 . S
O494 C510 1.225 . A
O495 Zn502 1.972 . S
O495 C513 1.251 . A
O496 Zn500 1.963 . S
O496 C511 1.263 . A
O497 Zn503 1.932 . S
O497 C514 1.270 . A
O498 Zn503 1.971 . S
O498 C516 1.264 . A
O499 Zn500 1.949 . S
O499 Zn501 1.915 . S
O499 Zn502 1.963 . S
O499 Zn503 1.918 . S
Zn500 O504 2.105 . S
Zn500 O517 1.937 . S
Zn501 O505 1.944 . S
Zn501 O506 1.958 . S
Zn501 O509 1.978 . S
Zn502 O508 2.107 . S
Zn502 O518 2.258 . S
Zn502 O519 1.943 . S
Zn503 O507 1.963 . S
O504 C514 1.238 . A
O505 C512 1.252 . A
O506 C511 1.261 . A
O507 C513 1.257 . A
O508 C512 1.240 . A
O509 C516 1.258 . A
C510 O519 1.283 . A
C515 O517 1.265 . A
C515 O518 1.229 . A
O520 Zn526 2.282 . S
O520 C536 1.225 . A
O521 Zn528 1.972 . S
O521 C539 1.251 . A
O522 Zn526 1.963 . S
O522 C537 1.263 . A
O523 Zn529 1.932 . S
O523 C540 1.270 . A
O524 Zn529 1.971 . S
O524 C542 1.264 . A
O525 Zn526 1.949 . S
O525 Zn527 1.915 . S
O525 Zn528 1.963 . S
O525 Zn529 1.918 . S
Zn526 O530 2.105 . S
Zn526 O543 1.937 . S
Zn527 O531 1.944 . S
Zn527 O532 1.958 . S
Zn527 O535 1.978 . S
Zn528 O534 2.107 . S
Zn528 O544 2.258 . S
Zn528 O545 1.943 . S
Zn529 O533 1.963 . S
O530 C540 1.238 . A
O531 C538 1.252 . A
O532 C537 1.261 . A
O533 C539 1.257 . A
O534 C538 1.240 . A
O535 C542 1.258 . A
C536 O545 1.283 . A
C541 O543 1.265 . A
C541 O544 1.229 . A
O546 Zn552 2.282 . S
O546 C562 1.225 . A
O547 Zn554 1.972 . S
O547 C565 1.251 . A
O548 Zn552 1.963 . S
O548 C563 1.263 . A
O549 Zn555 1.932 . S
O549 C566 1.270 . A
O550 Zn555 1.971 . S
O550 C568 1.264 . A
O551 Zn552 1.949 . S
O551 Zn553 1.915 . S
O551 Zn554 1.963 . S
O551 Zn555 1.918 . S
Zn552 O556 2.105 . S
Zn552 O569 1.937 . S
Zn553 O557 1.944 . S
Zn553 O558 1.958 . S
Zn553 O561 1.978 . S
Zn554 O560 2.107 . S
Zn554 O570 2.258 . S
Zn554 O571 1.943 . S
Zn555 O559 1.963 . S
O556 C566 1.238 . A
O557 C564 1.252 . A
O558 C563 1.261 . A
O559 C565 1.257 . A
O560 C564 1.240 . A
O561 C568 1.258 . A
C562 O571 1.283 . A
C567 O569 1.265 . A
C567 O570 1.229 . A
O572 Zn578 2.282 . S
O572 C588 1.225 . A
O573 Zn580 1.972 . S
O573 C591 1.251 . A
O574 Zn578 1.963 . S
O574 C589 1.263 . A
O575 Zn581 1.932 . S
O575 C592 1.270 . A
O576 Zn581 1.971 . S
O576 C594 1.264 . A
O577 Zn578 1.949 . S
O577 Zn579 1.915 . S
O577 Zn580 1.963 . S
O577 Zn581 1.918 . S
Zn578 O582 2.105 . S
Zn578 O595 1.937 . S
Zn579 O583 1.944 . S
Zn579 O584 1.958 . S
Zn579 O587 1.978 . S
Zn580 O586 2.107 . S
Zn580 O596 2.258 . S
Zn580 O597 1.943 . S
Zn581 O585 1.963 . S
O582 C592 1.238 . A
O583 C590 1.252 . A
O584 C589 1.261 . A
O585 C591 1.257 . A
O586 C590 1.240 . A
O587 C594 1.258 . A
C588 O597 1.283 . A
C593 O595 1.265 . A
C593 O596 1.229 . A
O598 Zn604 2.282 . S
O598 C614 1.225 . A
O599 Zn606 1.972 . S
O599 C617 1.251 . A
O600 Zn604 1.963 . S
O600 C615 1.263 . A
O601 Zn607 1.932 . S
O601 C618 1.270 . A
O602 Zn607 1.971 . S
O602 C620 1.264 . A
O603 Zn604 1.949 . S
O603 Zn605 1.915 . S
O603 Zn606 1.963 . S
O603 Zn607 1.918 . S
Zn604 O608 2.105 . S
Zn604 O621 1.937 . S
Zn605 O609 1.944 . S
Zn605 O610 1.958 . S
Zn605 O613 1.978 . S
Zn606 O612 2.107 . S
Zn606 O622 2.258 . S
Zn606 O623 1.943 . S
Zn607 O611 1.963 . S
O608 C618 1.238 . A
O609 C616 1.252 . A
O610 C615 1.261 . A
O611 C617 1.257 . A
O612 C616 1.240 . A
O613 C620 1.258 . A
C614 O623 1.283 . A
C619 O621 1.265 . A
C619 O622 1.229 . A
C624 C625 1.351 . A
C624 C629 1.391 . A
C625 C626 1.384 . A
C625 H632 0.930 . S
C626 C627 1.342 . A
C626 H633 0.930 . S
C627 C628 1.363 . A
C627 C630 1.525 . S
C628 C629 1.409 . A
C628 H634 0.930 . S
C629 H635 0.931 . S
C630 O631 1.214 . D
C636 C637 1.351 . A
C636 C641 1.391 . A
C637 C638 1.384 . A
C637 H644 0.930 . S
C638 C639 1.342 . A
C638 H645 0.930 . S
C639 C640 1.363 . A
C639 C642 1.525 . S
C640 C641 1.409 . A
C640 H646 0.930 . S
C641 H647 0.931 . S
C642 O643 1.214 . D
C648 C649 1.351 . A
C648 C653 1.391 . A
C649 C650 1.384 . A
C649 H656 0.930 . S
C650 C651 1.342 . A
C650 H657 0.930 . S
C651 C652 1.363 . A
C651 C654 1.525 . S
C652 C653 1.409 . A
C652 H658 0.930 . S
C653 H659 0.931 . S
C654 O655 1.214 . D
C660 C661 1.351 . A
C660 C665 1.391 . A
C661 C662 1.384 . A
C661 H668 0.930 . S
C662 C663 1.342 . A
C662 H669 0.930 . S
C663 C664 1.363 . A
C663 C666 1.525 . S
C664 C665 1.409 . A
C664 H670 0.930 . S
C665 H671 0.931 . S
C666 O667 1.214 . D
C672 C673 1.351 . A
C672 C677 1.391 . A
C673 C674 1.384 . A
C673 H680 0.930 . S
C674 C675 1.342 . A
C674 H681 0.930 . S
C675 C676 1.363 . A
C675 C678 1.525 . S
C676 C677 1.409 . A
C676 H682 0.930 . S
C677 H683 0.931 . S
C678 O679 1.214 . D
C684 C685 1.351 . A
C684 C689 1.391 . A
C685 C686 1.384 . A
C685 H692 0.930 . S
C686 C687 1.342 . A
C686 H693 0.930 . S
C687 C688 1.363 . A
C687 C690 1.525 . S
C688 C689 1.409 . A
C688 H694 0.930 . S
C689 H695 0.931 . S
C690 O691 1.214 . D
C696 C697 1.351 . A
C696 C701 1.391 . A
C697 C698 1.384 . A
C697 H704 0.930 . S
C698 C699 1.342 . A
C698 H705 0.930 . S
C699 C700 1.363 . A
C699 C702 1.525 . S
C700 C701 1.409 . A
C700 H706 0.930 . S
C701 H707 0.931 . S
C702 O703 1.214 . D
C708 C709 1.351 . A
C708 C713 1.391 . A
C709 C710 1.384 . A
C709 H716 0.930 . S
C710 C711 1.342 . A
C710 H717 0.930 . S
C711 C712 1.363 . A
C711 C714 1.525 . S
C712 C713 1.409 . A
C712 H718 0.930 . S
C713 H719 0.931 . S
C714 O715 1.214 . D
C720 C721 1.351 . A
C720 C725 1.391 . A
C721 C722 1.384 . A
C721 H728 0.930 . S
C722 C723 1.342 . A
C722 H729 0.930 . S
C723 C724 1.363 . A
C723 C726 1.525 . S
C724 C725 1.409 . A
C724 H730 0.930 . S
C725 H731 0.931 . S
C726 O727 1.214 . D
C732 C733 1.351 . A
C732 C737 1.391 . A
C733 C734 1.384 . A
C733 H740 0.930 . S
C734 C735 1.342 . A
C734 H741 0.930 . S
C735 C736 1.363 . A
C735 C738 1.525 . S
C736 C737 1.409 . A
C736 H742 0.930 . S
C737 H743 0.931 . S
C738 O739 1.214 . D
C744 C745 1.351 . A
C744 C749 1.391 . A
C745 C746 1.384 . A
C745 H752 0.930 . S
C746 C747 1.342 . A
C746 H753 0.930 . S
C747 C748 1.363 . A
C747 C750 1.525 . S
C748 C749 1.409 . A
C748 H754 0.930 . S
C749 H755 0.931 . S
C750 O751 1.214 . D
C756 C757 1.351 . A
C756 C761 1.391 . A
C757 C758 1.384 . A
C757 H764 0.930 . S
C758 C759 1.342 . A
C758 H765 0.930 . S
C759 C760 1.363 . A
C759 C762 1.525 . S
C760 C761 1.409 . A
C760 H766 0.930 . S
C761 H767 0.931 . S
C762 O763 1.214 . D
C768 C769 1.351 . A
C768 C773 1.391 . A
C769 C770 1.384 . A
C769 H776 0.930 . S
C770 C771 1.342 . A
C770 H777 0.930 . S
C771 C772 1.363 . A
C771 C774 1.525 . S
C772 C773 1.409 . A
C772 H778 0.930 . S
C773 H779 0.931 . S
C774 O775 1.214 . D
C780 C781 1.351 . A
C780 C785 1.391 . A
C781 C782 1.384 . A
C781 H788 0.930 . S
C782 C783 1.342 . A
C782 H789 0.930 . S
C783 C784 1.363 . A
C783 C786 1.525 . S
C784 C785 1.409 . A
C784 H790 0.930 . S
C785 H791 0.931 . S
C786 O787 1.214 . D
C792 C793 1.351 . A
C792 C797 1.391 . A
C793 C794 1.384 . A
C793 H800 0.930 . S
C794 C795 1.342 . A
C794 H801 0.930 . S
C795 C796 1.363 . A
C795 C798 1.525 . S
C796 C797 1.409 . A
C796 H802 0.930 . S
C797 H803 0.931 . S
C798 O799 1.214 . D
C804 C805 1.351 . A
C804 C809 1.391 . A
C805 C806 1.384 . A
C805 H812 0.930 . S
C806 C807 1.342 . A
C806 H813 0.930 . S
C807 C808 1.363 . A
C807 C810 1.525 . S
C808 C809 1.409 . A
C808 H814 0.930 . S
C809 H815 0.931 . S
C810 O811 1.214 . D
C816 C817 1.351 . A
C816 C821 1.391 . A
C817 C818 1.384 . A
C817 H824 0.930 . S
C818 C819 1.342 . A
C818 H825 0.930 . S
C819 C820 1.363 . A
C819 C822 1.525 . S
C820 C821 1.409 . A
C820 H826 0.930 . S
C821 H827 0.931 . S
C822 O823 1.214 . D
C828 C829 1.351 . A
C828 C833 1.391 . A
C829 C830 1.384 . A
C829 H836 0.930 . S
C830 C831 1.342 . A
C830 H837 0.930 . S
C831 C832 1.363 . A
C831 C834 1.525 . S
C832 C833 1.409 . A
C832 H838 0.930 . S
C833 H839 0.931 . S
C834 O835 1.214 . D
C840 C841 1.351 . A
C840 C845 1.391 . A
C841 C842 1.384 . A
C841 H848 0.930 . S
C842 C843 1.342 . A
C842 H849 0.930 . S
C843 C844 1.363 . A
C843 C846 1.525 . S
C844 C845 1.409 . A
C844 H850 0.930 . S
C845 H851 0.931 . S
C846 O847 1.214 . D
C852 C853 1.351 . A
C852 C857 1.391 . A
C853 C854 1.384 . A
C853 H860 0.930 . S
C854 C855 1.342 . A
C854 H861 0.930 . S
C855 C856 1.363 . A
C855 C858 1.525 . S
C856 C857 1.409 . A
C856 H862 0.930 . S
C857 H863 0.931 . S
C858 O859 1.214 . D
C864 C865 1.351 . A
C864 C869 1.391 . A
C865 C866 1.384 . A
C865 H872 0.930 . S
C866 C867 1.342 . A
C866 H873 0.930 . S
C867 C868 1.363 . A
C867 C870 1.525 . S
C868 C869 1.409 . A
C868 H874 0.930 . S
C869 H875 0.931 . S
C870 O871 1.214 . D
C876 C877 1.351 . A
C876 C881 1.391 . A
C877 C878 1.384 . A
C877 H884 0.930 . S
C878 C879 1.342 . A
C878 H885 0.930 . S
C879 C880 1.363 . A
C879 C882 1.525 . S
C880 C881 1.409 . A
C880 H886 0.930 . S
C881 H887 0.931 . S
C882 O883 1.214 . D
C888 C889 1.351 . A
C888 C893 1.391 . A
C889 C890 1.384 . A
C889 H896 0.930 . S
C890 C891 1.342 . A
C890 H897 0.930 . S
C891 C892 1.363 . A
C891 C894 1.525 . S
C892 C893 1.409 . A
C892 H898 0.930 . S
C893 H899 0.931 . S
C894 O895 1.214 . D
C900 C901 1.351 . A
C900 C905 1.391 . A
C901 C902 1.384 . A
C901 H908 0.930 . S
C902 C903 1.342 . A
C902 H909 0.930 . S
C903 C904 1.363 . A
C903 C906 1.525 . S
C904 C905 1.409 . A
C904 H910 0.930 . S
C905 H911 0.931 . S
C906 O907 1.214 . D
C912 C913 1.351 . A
C912 C917 1.391 . A
C913 C914 1.384 1_455 A
C913 H920 0.930 . S
C914 C915 1.342 . A
C914 H921 0.930 . S
C915 C916 1.363 . A
C915 C918 1.525 . S
C916 C917 1.409 1_655 A
C916 H922 0.930 . S
C917 H923 0.931 . S
C918 O919 1.214 . D
C924 C925 1.351 . A
C924 C929 1.391 . A
C925 C926 1.384 1_565 A
C925 H932 0.930 . S
C926 C927 1.342 . A
C926 H933 0.930 . S
C927 C928 1.375 . A
C927 C930 1.525 . S
C928 C929 1.390 1_545 A
C928 H934 0.937 . S
C929 H935 0.931 . S
C930 O931 1.214 . D
C936 C937 1.351 . A
C936 C941 1.391 . A
C937 C938 1.384 1_455 A
C937 H944 0.930 . S
C938 C939 1.342 . A
C938 H945 0.930 . S
C939 C940 1.376 . A
C939 C942 1.525 . S
C940 C941 1.389 1_655 A
C940 H946 0.937 . S
C941 H947 0.931 . S
C942 O943 1.214 . D
C948 C949 1.351 . A
C948 C953 1.391 . A
C949 C950 1.384 1_554 A
C949 H956 0.930 . S
C950 C951 1.342 . A
C950 H957 0.930 . S
C951 C952 1.363 . A
C951 C954 1.525 . S
C952 C953 1.409 1_556 A
C952 H958 0.930 . S
C953 H959 0.931 . S
C954 O955 1.214 . D
C960 C961 1.351 . A
C960 C965 1.391 . A
C961 C962 1.384 1_545 A
C961 H968 0.930 . S
C962 C963 1.342 . A
C962 H969 0.930 . S
C963 C964 1.379 . A
C963 C966 1.525 . S
C964 C965 1.384 1_565 A
C964 H970 0.939 . S
C965 H971 0.931 . S
C966 O967 1.214 . D
C972 C973 1.351 . A
C972 C977 1.391 . A
C973 C974 1.384 1_565 A
C973 H980 0.930 . S
C974 C975 1.342 . A
C974 H981 0.930 . S
C975 C976 1.346 1_545 A
C975 C978 1.525 . S
C976 C977 1.434 . A
C976 H982 0.922 1_565 S
C977 H983 0.931 . S
C978 O979 1.214 . D
C984 C985 1.351 . A
C984 C989 1.391 . A
C985 C986 1.384 1_655 A
C985 H992 0.930 . S
C986 C987 1.342 . A
C986 H993 0.930 . S
C987 C988 1.363 . A
C987 C990 1.525 . S
C988 C989 1.409 1_455 A
C988 H994 0.930 . S
C989 H995 0.931 . S
C990 O991 1.214 . D
C996 C997 1.351 . A
C996 C1001 1.391 . A
C997 C998 1.384 1_545 A
C997 H1004 0.930 . S
C998 C999 1.342 . A
C998 H1005 0.930 . S
C999 C1000 1.363 . A
C999 C1002 1.525 . S
C1000 C1001 1.409 1_565 A
C1000 H1006 0.930 . S
C1001 H1007 0.931 . S
C1002 O1003 1.214 . D
C1008 C1009 1.351 . A
C1008 C1013 1.391 . A
C1009 C1010 1.384 1_655 A
C1009 H1016 0.930 . S
C1010 C1011 1.342 . A
C1010 H1017 0.930 . S
C1011 C1012 1.363 . A
C1011 C1014 1.525 . S
C1012 C1013 1.409 1_455 A
C1012 H1018 0.930 . S
C1013 H1019 0.931 . S
C1014 O1015 1.214 . D
C1020 C1021 1.351 . A
C1020 C1025 1.391 . A
C1021 C1022 1.384 1_554 A
C1021 H1028 0.930 . S
C1022 C1023 1.342 . A
C1022 H1029 0.930 . S
C1023 C1024 1.363 . A
C1023 C1026 1.525 . S
C1024 C1025 1.409 1_556 A
C1024 H1030 0.930 . S
C1025 H1031 0.931 . S
C1026 O1027 1.214 . D
C1032 C1033 1.351 . A
C1032 C1037 1.391 . A
C1033 C1034 1.384 1_554 A
C1033 H1040 0.930 . S
C1034 C1035 1.342 . A
C1034 H1041 0.930 . S
C1035 C1036 1.363 . A
C1035 C1038 1.525 . S
C1036 C1037 1.409 1_556 A
C1036 H1042 0.930 . S
C1037 H1043 0.931 . S
C1038 O1039 1.214 . D
C1044 C1045 1.351 . A
C1044 C1049 1.391 . A
C1045 C1046 1.384 1_554 A
C1045 H1052 0.930 . S
C1046 C1047 1.342 . A
C1046 H1053 0.930 . S
C1047 C1048 1.363 1_556 A
C1047 C1050 1.525 . S
C1048 C1049 1.409 . A
C1048 H1054 0.930 1_554 S
C1049 H1055 0.931 . S
C1050 O1051 1.214 . D
C1056 C1057 1.351 . A
C1056 C1061 1.391 . A
C1057 C1058 1.384 . A
C1057 H1064 0.930 . S
C1058 C1059 1.342 . A
C1058 H1065 0.930 . S
C1059 C1060 1.363 . A
C1059 C1062 1.525 . S
C1060 C1061 1.409 . A
C1060 H1066 0.930 . S
C1061 H1067 0.931 . S
C1062 O1063 1.214 . D
C1068 C1069 1.351 . A
C1068 C1073 1.391 . A
C1069 C1070 1.384 . A
C1069 H1076 0.930 . S
C1070 C1071 1.342 . A
C1070 H1077 0.930 . S
C1071 C1072 1.363 . A
C1071 C1074 1.525 . S
C1072 C1073 1.409 . A
C1072 H1078 0.930 . S
C1073 H1079 0.931 . S
C1074 O1075 1.214 . D
C1080 C1081 1.351 . A
C1080 C1085 1.391 . A
C1081 C1082 1.384 . A
C1081 H1088 0.930 . S
C1082 C1083 1.342 . A
C1082 H1089 0.930 . S
C1083 C1084 1.363 . A
C1083 C1086 1.525 . S
C1084 C1085 1.409 . A
C1084 H1090 0.930 . S
C1085 H1091 0.931 . S
C1086 O1087 1.214 . D
C1092 C1093 1.351 . A
C1092 C1097 1.391 . A
C1093 C1094 1.384 . A
C1093 H1100 0.930 . S
C1094 C1095 1.342 . A
C1094 H1101 0.930 . S
C1095 C1096 1.363 . A
C1095 C1098 1.525 . S
C1096 C1097 1.409 . A
C1096 H1102 0.930 . S
C1097 H1103 0.931 . S
C1098 O1099 1.214 . D
C1104 C1105 1.351 . A
C1104 C1109 1.391 . A
C1105 C1106 1.384 . A
C1105 H1112 0.930 . S
C1106 C1107 1.342 . A
C1106 H1113 0.930 . S
C1107 C1108 1.363 . A
C1107 C1110 1.525 . S
C1108 C1109 1.409 . A
C1108 H1114 0.930 . S
C1109 H1115 0.931 . S
C1110 O1111 1.214 . D
C1116 C1117 1.351 . A
C1116 C1121 1.391 . A
C1117 C1118 1.384 . A
C1117 H1124 0.930 . S
C1118 C1119 1.342 . A
C1118 H1125 0.930 . S
C1119 C1120 1.363 . A
C1119 C1122 1.525 . S
C1120 C1121 1.409 . A
C1120 H1126 0.930 . S
C1121 H1127 0.931 . S
C1122 O1123 1.214 . D
C1128 C1129 1.351 . A
C1128 C1133 1.391 . A
C1129 C1130 1.384 . A
C1129 H1136 0.930 . S
C1130 C1131 1.342 . A
C1130 H1137 0.930 . S
C1131 C1132 1.363 . A
C1131 C1134 1.525 . S
C1132 C1133 1.409 . A
C1132 H1138 0.930 . S
C1133 H1139 0.931 . S
C1134 O1135 1.214 . D
C1140 C1141 1.351 . A
C1140 C1145 1.391 . A
C1141 C1142 1.384 . A
C1141 H1148 0.930 . S
C1142 C1143 1.342 . A
C1142 H1149 0.930 . S
C1143 C1144 1.363 . A
C1143 C1146 1.525 . S
C1144 C1145 1.409 . A
C1144 H1150 0.930 . S
C1145 H1151 0.931 . S
C1146 O1147 1.214 . D
C1152 C1153 1.351 . A
C1152 C1157 1.391 . A
C1153 C1154 1.384 . A
C1153 H1160 0.930 . S
C1154 C1155 1.342 . A
C1154 H1161 0.930 . S
C1155 C1156 1.363 . A
C1155 C1158 1.525 . S
C1156 C1157 1.409 . A
C1156 H1162 0.930 . S
C1157 H1163 0.931 . S
C1158 O1159 1.214 . D
C1164 C1165 1.351 . A
C1164 C1169 1.391 . A
C1165 C1166 1.384 . A
C1165 H1172 0.930 . S
C1166 C1167 1.342 . A
C1166 H1173 0.930 . S
C1167 C1168 1.363 . A
C1167 C1170 1.525 . S
C1168 C1169 1.409 . A
C1168 H1174 0.930 . S
C1169 H1175 0.931 . S
C1170 O1171 1.214 . D
C1176 C1177 1.351 . A
C1176 C1181 1.391 . A
C1177 C1178 1.384 . A
C1177 H1184 0.930 . S
C1178 C1179 1.342 . A
C1178 H1185 0.930 . S
C1179 C1180 1.363 . A
C1179 C1182 1.525 . S
C1180 C1181 1.409 . A
C1180 H1186 0.930 . S
C1181 H1187 0.931 . S
C1182 O1183 1.214 . D
C1188 C1189 1.351 . A
C1188 C1193 1.391 . A
C1189 C1190 1.384 . A
C1189 H1196 0.930 . S
C1190 C1191 1.342 . A
C1190 H1197 0.930 . S
C1191 C1192 1.363 . A
C1191 C1194 1.525 . S
C1192 C1193 1.409 . A
C1192 H1198 0.930 . S
C1193 H1199 0.931 . S
C1194 O1195 1.214 . D
C624 C384 1.360 . S
C630 C19 1.261 . S
C636 C45 1.414 . S
C642 C280 1.137 . S
C648 C306 1.434 . S
C654 C71 1.059 . S
C660 C228 1.420 . S
C666 C97 1.124 . S
C672 C332 1.360 . S
C678 C123 1.260 . S
C684 C410 1.355 . S
C690 C149 0.972 . S
C696 C488 1.314 . S
C702 C175 1.075 . S
C708 C565 1.332 . S
C714 C98 1.114 . S
C720 C253 1.383 . S
C726 C124 1.117 . S
C732 C202 1.496 . S
C738 C227 0.802 . S
C744 C591 1.361 . S
C750 C254 1.288 . S
C756 C358 1.385 . S
C762 C617 1.065 . S
C768 C357 1.446 . S
C774 C46 1.223 . S
C780 C566 1.421 . S
C786 C201 1.118 . S
C792 C409 1.291 . S
C798 C514 1.120 . S
C804 C176 1.354 . S
C810 C435 0.989 . S
C816 C436 1.316 . S
C822 C461 1.025 . S
C828 C462 1.338 . S
C834 C487 1.128 . S
C840 C513 1.309 . S
C846 C540 0.922 . S
C852 C539 1.298 . S
C858 C150 0.935 . S
C864 C383 1.359 . S
C870 C72 1.184 . S
C876 C331 1.416 . S
C882 C592 1.153 . S
C888 C279 1.445 . S
C894 C618 1.231 . S
C900 C20 1.510 . S
C906 C305 0.946 . S
C912 C594 2.330 . S
C918 C22 1.971 . S
C924 C100 2.347 . S
C930 C48 1.895 . S
C936 C126 2.347 . S
C942 C74 1.894 . S
C948 C178 1.613 . S
C954 C152 1.232 . S
C960 C620 2.347 . S
C966 C204 1.894 . S
C972 C224 1.057 . S
C978 C354 0.812 . S
C984 C302 1.074 . S
C990 C250 0.723 . S
C996 C276 1.057 . S
C1002 C562 0.812 . S
C1008 C380 1.065 . S
C1014 C328 0.772 . S
C1020 C438 1.608 . S
C1026 C412 1.281 . S
C1032 C464 1.608 . S
C1038 C516 1.242 . S
C1044 C490 1.616 . S
C1050 C542 1.240 . S
C1056 C146 1.422 . S
C1062 C16 1.107 . S
C1068 C42 1.380 . S
C1074 C484 1.173 . S
C1080 C172 1.383 . S
C1086 C68 1.088 . S
C1092 C94 1.413 . S
C1098 C432 1.144 . S
C1104 C120 1.378 . S
C1110 C458 1.172 . S
C1116 C198 1.419 . S
C1122 C406 1.099 . S
C1128 C256 1.622 . S
C1134 C230 1.239 . S
C1140 C386 1.658 . S
C1146 C282 1.351 . S
C1152 C568 1.625 . S
C1158 C308 1.218 . S
C1164 C334 1.659 . S
C1170 C360 1.348 . S
C1176 C588 1.383 . S
C1182 C510 1.176 . S
C1188 C614 1.416 . S
C1194 C536 1.130 . S
