# Generated by pormake.
# Topology lta, (4)-cn, num edge types: 1
# Building blocks:
#     Node 0, Type 0, BuildingBlock: N482, # of connection points: 5
#     Node 1, Type 0, BuildingBlock: N482, # of connection points: 5
#     Node 2, Type 0, BuildingBlock: N482, # of connection points: 5
#     Node 3, Type 0, BuildingBlock: N482, # of connection points: 5
#     Node 4, Type 0, BuildingBlock: N482, # of connection points: 5
#     Node 5, Type 0, BuildingBlock: N482, # of connection points: 5
#     Node 6, Type 0, BuildingBlock: N482, # of connection points: 5
#     Node 7, Type 0, BuildingBlock: N482, # of connection points: 5
#     Node 8, Type 0, BuildingBlock: N482, # of connection points: 5
#     Node 9, Type 0, BuildingBlock: N482, # of connection points: 5
#     Node 10, Type 0, BuildingBlock: N482, # of connection points: 5
#     Node 11, Type 0, BuildingBlock: N482, # of connection points: 5
#     Node 12, Type 0, BuildingBlock: N482, # of connection points: 5
#     Node 13, Type 0, BuildingBlock: N482, # of connection points: 5
#     Node 14, Type 0, BuildingBlock: N482, # of connection points: 5
#     Node 15, Type 0, BuildingBlock: N482, # of connection points: 5
#     Node 16, Type 0, BuildingBlock: N482, # of connection points: 5
#     Node 17, Type 0, BuildingBlock: N482, # of connection points: 5
#     Node 18, Type 0, BuildingBlock: N482, # of connection points: 5
#     Node 19, Type 0, BuildingBlock: N482, # of connection points: 5
#     Node 20, Type 0, BuildingBlock: N482, # of connection points: 5
#     Node 21, Type 0, BuildingBlock: N482, # of connection points: 5
#     Node 22, Type 0, BuildingBlock: N482, # of connection points: 5
#     Node 23, Type 0, BuildingBlock: N482, # of connection points: 5
#     Edge 24, Type (0, 0), BuildingBlock: E146, # of connection points: 2
#     Edge 25, Type (0, 0), BuildingBlock: E146, # of connection points: 2
#     Edge 26, Type (0, 0), BuildingBlock: E146, # of connection points: 2
#     Edge 27, Type (0, 0), BuildingBlock: E146, # of connection points: 2
#     Edge 28, Type (0, 0), BuildingBlock: E146, # of connection points: 2
#     Edge 29, Type (0, 0), BuildingBlock: E146, # of connection points: 2
#     Edge 30, Type (0, 0), BuildingBlock: E146, # of connection points: 2
#     Edge 31, Type (0, 0), BuildingBlock: E146, # of connection points: 2
#     Edge 32, Type (0, 0), BuildingBlock: E146, # of connection points: 2
#     Edge 33, Type (0, 0), BuildingBlock: E146, # of connection points: 2
#     Edge 34, Type (0, 0), BuildingBlock: E146, # of connection points: 2
#     Edge 35, Type (0, 0), BuildingBlock: E146, # of connection points: 2
#     Edge 36, Type (0, 0), BuildingBlock: E146, # of connection points: 2
#     Edge 37, Type (0, 0), BuildingBlock: E146, # of connection points: 2
#     Edge 38, Type (0, 0), BuildingBlock: E146, # of connection points: 2
#     Edge 39, Type (0, 0), BuildingBlock: E146, # of connection points: 2
#     Edge 40, Type (0, 0), BuildingBlock: E146, # of connection points: 2
#     Edge 41, Type (0, 0), BuildingBlock: E146, # of connection points: 2
#     Edge 42, Type (0, 0), BuildingBlock: E146, # of connection points: 2
#     Edge 43, Type (0, 0), BuildingBlock: E146, # of connection points: 2
#     Edge 44, Type (0, 0), BuildingBlock: E146, # of connection points: 2
#     Edge 45, Type (0, 0), BuildingBlock: E146, # of connection points: 2
#     Edge 46, Type (0, 0), BuildingBlock: E146, # of connection points: 2
#     Edge 47, Type (0, 0), BuildingBlock: E146, # of connection points: 2
#     Edge 48, Type (0, 0), BuildingBlock: E146, # of connection points: 2
#     Edge 49, Type (0, 0), BuildingBlock: E146, # of connection points: 2
#     Edge 50, Type (0, 0), BuildingBlock: E146, # of connection points: 2
#     Edge 51, Type (0, 0), BuildingBlock: E146, # of connection points: 2
#     Edge 52, Type (0, 0), BuildingBlock: E146, # of connection points: 2
#     Edge 53, Type (0, 0), BuildingBlock: E146, # of connection points: 2
#     Edge 54, Type (0, 0), BuildingBlock: E146, # of connection points: 2
#     Edge 55, Type (0, 0), BuildingBlock: E146, # of connection points: 2
#     Edge 56, Type (0, 0), BuildingBlock: E146, # of connection points: 2
#     Edge 57, Type (0, 0), BuildingBlock: E146, # of connection points: 2
#     Edge 58, Type (0, 0), BuildingBlock: E146, # of connection points: 2
#     Edge 59, Type (0, 0), BuildingBlock: E146, # of connection points: 2
#     Edge 60, Type (0, 0), BuildingBlock: E146, # of connection points: 2
#     Edge 61, Type (0, 0), BuildingBlock: E146, # of connection points: 2
#     Edge 62, Type (0, 0), BuildingBlock: E146, # of connection points: 2
#     Edge 63, Type (0, 0), BuildingBlock: E146, # of connection points: 2
#     Edge 64, Type (0, 0), BuildingBlock: E146, # of connection points: 2
#     Edge 65, Type (0, 0), BuildingBlock: E146, # of connection points: 2
#     Edge 66, Type (0, 0), BuildingBlock: E146, # of connection points: 2
#     Edge 67, Type (0, 0), BuildingBlock: E146, # of connection points: 2
#     Edge 68, Type (0, 0), BuildingBlock: E146, # of connection points: 2
#     Edge 69, Type (0, 0), BuildingBlock: E146, # of connection points: 2
#     Edge 70, Type (0, 0), BuildingBlock: E146, # of connection points: 2
#     Edge 71, Type (0, 0), BuildingBlock: E146, # of connection points: 2
# Relax obj value: 0.191
# Max RMSD: 0.260
# Mean RMSD: 0.231
data_lta+N482+E146
_symmetry_space_group_name_H-M    P1
_symmetry_Int_Tables_number       1
_symmetry_cell_setting            triclinic
loop_
_symmetry_equiv_pos_as_xyz
'x, y, z'
_cell_length_a     45.545
_cell_length_b     45.545
_cell_length_c     35.772
_cell_angle_alpha  90.000
_cell_angle_beta   90.000
_cell_angle_gamma  90.000
loop_
_atom_site_label
_atom_site_type_symbol
_atom_site_fract_x
_atom_site_fract_y
_atom_site_fract_z
_atom_type_partial_charge
Ni0 Ni 0.82794 0.51992 0.69020 0.00000
Ni1 Ni 0.89787 0.52508 0.67508 0.00000
C2 C 0.88472 0.55893 0.72909 0.00000
C3 C 0.94489 0.50264 0.67646 0.00000
O4 O 0.90846 0.56451 0.71557 0.00000
O5 O 0.93717 0.51477 0.64681 0.00000
O6 O 0.92641 0.50075 0.70312 0.00000
O7 O 0.88003 0.54845 0.63634 0.00000
O8 O 0.86929 0.53926 0.71793 0.00000
C9 C 0.85360 0.55507 0.63095 0.00000
C10 C 0.84440 0.47447 0.65461 0.00000
C11 C 0.78899 0.51412 0.73365 0.00000
O12 O 0.81805 0.47804 0.65362 0.00000
O13 O 0.78730 0.53490 0.71107 0.00000
O14 O 0.81239 0.49878 0.73435 0.00000
O15 O 0.83139 0.54693 0.64897 0.00000
O16 O 0.86077 0.49085 0.67098 0.00000
Ni17 Ni 0.48008 0.17206 0.30980 0.00000
Ni18 Ni 0.47492 0.10213 0.32492 0.00000
C19 C 0.44107 0.11527 0.27091 0.00000
C20 C 0.49736 0.05511 0.32354 0.00000
O21 O 0.43549 0.09154 0.28443 0.00000
O22 O 0.48523 0.06283 0.35319 0.00000
O23 O 0.49925 0.07359 0.29688 0.00000
O24 O 0.45155 0.11996 0.36366 0.00000
O25 O 0.46074 0.13071 0.28207 0.00000
C26 C 0.44493 0.14639 0.36905 0.00000
C27 C 0.52553 0.15560 0.34539 0.00000
C28 C 0.48588 0.21101 0.26635 0.00000
O29 O 0.52196 0.18195 0.34638 0.00000
O30 O 0.46510 0.21269 0.28893 0.00000
O31 O 0.50122 0.18761 0.26565 0.00000
O32 O 0.45307 0.16861 0.35103 0.00000
O33 O 0.50915 0.13923 0.32902 0.00000
Ni34 Ni 0.82794 0.48008 0.30980 0.00000
Ni35 Ni 0.89787 0.47492 0.32492 0.00000
C36 C 0.88472 0.44107 0.27091 0.00000
C37 C 0.94489 0.49736 0.32354 0.00000
O38 O 0.90846 0.43549 0.28443 0.00000
O39 O 0.93717 0.48523 0.35319 0.00000
O40 O 0.92641 0.49925 0.29688 0.00000
O41 O 0.88003 0.45155 0.36366 0.00000
O42 O 0.86929 0.46074 0.28207 0.00000
C43 C 0.85360 0.44493 0.36905 0.00000
C44 C 0.84440 0.52553 0.34539 0.00000
C45 C 0.78899 0.48588 0.26635 0.00000
O46 O 0.81805 0.52196 0.34638 0.00000
O47 O 0.78730 0.46510 0.28893 0.00000
O48 O 0.81239 0.50122 0.26565 0.00000
O49 O 0.83139 0.45307 0.35103 0.00000
O50 O 0.86077 0.50915 0.32902 0.00000
Ni51 Ni 0.51992 0.82794 0.30980 0.00000
Ni52 Ni 0.52508 0.89787 0.32492 0.00000
C53 C 0.55893 0.88473 0.27091 0.00000
C54 C 0.50264 0.94489 0.32354 0.00000
O55 O 0.56451 0.90846 0.28443 0.00000
O56 O 0.51477 0.93717 0.35319 0.00000
O57 O 0.50075 0.92641 0.29688 0.00000
O58 O 0.54845 0.88004 0.36366 0.00000
O59 O 0.53926 0.86929 0.28207 0.00000
C60 C 0.55507 0.85361 0.36905 0.00000
C61 C 0.47447 0.84440 0.34539 0.00000
C62 C 0.51412 0.78899 0.26635 0.00000
O63 O 0.47804 0.81805 0.34638 0.00000
O64 O 0.53490 0.78731 0.28893 0.00000
O65 O 0.49878 0.81239 0.26565 0.00000
O66 O 0.54693 0.83139 0.35103 0.00000
O67 O 0.49085 0.86077 0.32902 0.00000
Ni68 Ni 0.17206 0.51992 0.30980 0.00000
Ni69 Ni 0.10213 0.52508 0.32492 0.00000
C70 C 0.11528 0.55893 0.27090 0.00000
C71 C 0.05511 0.50264 0.32354 0.00000
O72 O 0.09154 0.56451 0.28443 0.00000
O73 O 0.06283 0.51477 0.35319 0.00000
O74 O 0.07359 0.50075 0.29688 0.00000
O75 O 0.11997 0.54845 0.36366 0.00000
O76 O 0.13071 0.53926 0.28207 0.00000
C77 C 0.14640 0.55507 0.36905 0.00000
C78 C 0.15560 0.47447 0.34539 0.00000
C79 C 0.21101 0.51412 0.26634 0.00000
O80 O 0.18195 0.47804 0.34638 0.00000
O81 O 0.21270 0.53490 0.28893 0.00000
O82 O 0.18761 0.49877 0.26565 0.00000
O83 O 0.16861 0.54693 0.35103 0.00000
O84 O 0.13923 0.49085 0.32902 0.00000
Ni85 Ni 0.68399 0.54892 0.87192 0.00000
Ni86 Ni 0.61698 0.56177 0.89752 0.00000
C87 C 0.61850 0.51198 0.86537 0.00000
C88 C 0.57357 0.59004 0.89037 0.00000
O89 O 0.59641 0.51555 0.88368 0.00000
O90 O 0.58358 0.58707 0.92259 0.00000
O91 O 0.58832 0.57998 0.86293 0.00000
O92 O 0.63673 0.54973 0.94263 0.00000
O93 O 0.63749 0.53035 0.86280 0.00000
C94 C 0.66248 0.54068 0.94756 0.00000
C95 C 0.67819 0.60393 0.88167 0.00000
C96 C 0.71699 0.53337 0.82455 0.00000
O97 O 0.70365 0.59625 0.88101 0.00000
O98 O 0.71910 0.52152 0.85585 0.00000
O99 O 0.69589 0.55118 0.81874 0.00000
O100 O 0.68280 0.53827 0.92403 0.00000
O101 O 0.65800 0.58705 0.87790 0.00000
Ni102 Ni 0.68399 0.45108 0.12808 0.00000
Ni103 Ni 0.61698 0.43823 0.10248 0.00000
C104 C 0.61850 0.48802 0.13463 0.00000
C105 C 0.57357 0.40996 0.10963 0.00000
O106 O 0.59641 0.48445 0.11632 0.00000
O107 O 0.58358 0.41293 0.07741 0.00000
O108 O 0.58832 0.42002 0.13707 0.00000
O109 O 0.63673 0.45027 0.05737 0.00000
O110 O 0.63749 0.46965 0.13720 0.00000
C111 C 0.66248 0.45932 0.05244 0.00000
C112 C 0.67819 0.39607 0.11833 0.00000
C113 C 0.71699 0.46663 0.17545 0.00000
O114 O 0.70365 0.40375 0.11899 0.00000
O115 O 0.71910 0.47848 0.14415 0.00000
O116 O 0.69589 0.44882 0.18126 0.00000
O117 O 0.68280 0.46173 0.07597 0.00000
O118 O 0.65799 0.41295 0.12210 0.00000
Ni119 Ni 0.48008 0.82794 0.69020 0.00000
Ni120 Ni 0.47492 0.89787 0.67508 0.00000
C121 C 0.44107 0.88473 0.72909 0.00000
C122 C 0.49736 0.94489 0.67646 0.00000
O123 O 0.43549 0.90846 0.71557 0.00000
O124 O 0.48523 0.93717 0.64681 0.00000
O125 O 0.49925 0.92641 0.70312 0.00000
O126 O 0.45155 0.88004 0.63634 0.00000
O127 O 0.46074 0.86929 0.71793 0.00000
C128 C 0.44493 0.85361 0.63095 0.00000
C129 C 0.52553 0.84440 0.65461 0.00000
C130 C 0.48588 0.78899 0.73365 0.00000
O131 O 0.52197 0.81805 0.65362 0.00000
O132 O 0.46511 0.78731 0.71107 0.00000
O133 O 0.50123 0.81239 0.73435 0.00000
O134 O 0.45307 0.83139 0.64897 0.00000
O135 O 0.50915 0.86077 0.67098 0.00000
Ni136 Ni 0.33940 0.82253 0.47043 0.00000
Ni137 Ni 0.35225 0.89161 0.45640 0.00000
C138 C 0.30574 0.87778 0.42122 0.00000
C139 C 0.35502 0.93992 0.48104 0.00000
O140 O 0.31618 0.90078 0.41063 0.00000
O141 O 0.37648 0.93074 0.46283 0.00000
O142 O 0.33403 0.92226 0.48811 0.00000
O143 O 0.37919 0.87143 0.42376 0.00000
O144 O 0.31644 0.86330 0.44596 0.00000
C145 C 0.38195 0.84453 0.41693 0.00000
C146 C 0.37304 0.84083 0.52217 0.00000
C147 C 0.30529 0.78511 0.48611 0.00000
O148 O 0.37274 0.81431 0.51971 0.00000
O149 O 0.32034 0.78160 0.45735 0.00000
O150 O 0.30717 0.80941 0.50364 0.00000
O151 O 0.36835 0.82331 0.43116 0.00000
O152 O 0.35869 0.85658 0.50212 0.00000
Ni153 Ni 0.17747 0.66060 0.52957 0.00000
Ni154 Ni 0.10839 0.64775 0.54360 0.00000
C155 C 0.12222 0.69426 0.57878 0.00000
C156 C 0.06008 0.64498 0.51896 0.00000
O157 O 0.09921 0.68382 0.58937 0.00000
O158 O 0.06925 0.62352 0.53717 0.00000
O159 O 0.07774 0.66597 0.51189 0.00000
O160 O 0.12857 0.62081 0.57624 0.00000
O161 O 0.13670 0.68356 0.55404 0.00000
C162 C 0.15547 0.61805 0.58307 0.00000
C163 C 0.15917 0.62696 0.47783 0.00000
C164 C 0.21489 0.69471 0.51389 0.00000
O165 O 0.18569 0.62726 0.48029 0.00000
O166 O 0.21839 0.67966 0.54265 0.00000
O167 O 0.19059 0.69283 0.49636 0.00000
O168 O 0.17669 0.63165 0.56884 0.00000
O169 O 0.14342 0.64131 0.49788 0.00000
Ni170 Ni 0.66060 0.17747 0.47043 0.00000
Ni171 Ni 0.64775 0.10839 0.45640 0.00000
C172 C 0.69426 0.12222 0.42122 0.00000
C173 C 0.64498 0.06008 0.48104 0.00000
O174 O 0.68382 0.09921 0.41063 0.00000
O175 O 0.62352 0.06926 0.46283 0.00000
O176 O 0.66597 0.07774 0.48811 0.00000
O177 O 0.62081 0.12857 0.42376 0.00000
O178 O 0.68356 0.13670 0.44596 0.00000
C179 C 0.61805 0.15547 0.41693 0.00000
C180 C 0.62696 0.15917 0.52217 0.00000
C181 C 0.69470 0.21489 0.48611 0.00000
O182 O 0.62726 0.18569 0.51971 0.00000
O183 O 0.67966 0.21840 0.45735 0.00000
O184 O 0.69283 0.19059 0.50364 0.00000
O185 O 0.63165 0.17669 0.43116 0.00000
O186 O 0.64131 0.14342 0.50212 0.00000
Ni187 Ni 0.82253 0.66060 0.47043 0.00000
Ni188 Ni 0.89161 0.64775 0.45640 0.00000
C189 C 0.87778 0.69426 0.42122 0.00000
C190 C 0.93992 0.64498 0.48104 0.00000
O191 O 0.90079 0.68382 0.41063 0.00000
O192 O 0.93075 0.62352 0.46283 0.00000
O193 O 0.92226 0.66597 0.48811 0.00000
O194 O 0.87143 0.62081 0.42376 0.00000
O195 O 0.86330 0.68356 0.44596 0.00000
C196 C 0.84453 0.61805 0.41693 0.00000
C197 C 0.84083 0.62696 0.52217 0.00000
C198 C 0.78511 0.69471 0.48611 0.00000
O199 O 0.81431 0.62726 0.51971 0.00000
O200 O 0.78161 0.67966 0.45735 0.00000
O201 O 0.80941 0.69283 0.50364 0.00000
O202 O 0.82331 0.63165 0.43116 0.00000
O203 O 0.85658 0.64131 0.50212 0.00000
Ni204 Ni 0.17747 0.33940 0.47043 0.00000
Ni205 Ni 0.10839 0.35225 0.45640 0.00000
C206 C 0.12222 0.30574 0.42122 0.00000
C207 C 0.06008 0.35502 0.48104 0.00000
O208 O 0.09921 0.31618 0.41063 0.00000
O209 O 0.06925 0.37648 0.46283 0.00000
O210 O 0.07774 0.33403 0.48811 0.00000
O211 O 0.12857 0.37919 0.42376 0.00000
O212 O 0.13670 0.31644 0.44596 0.00000
C213 C 0.15547 0.38195 0.41693 0.00000
C214 C 0.15917 0.37304 0.52217 0.00000
C215 C 0.21489 0.30529 0.48611 0.00000
O216 O 0.18569 0.37274 0.51971 0.00000
O217 O 0.21839 0.32034 0.45735 0.00000
O218 O 0.19059 0.30717 0.50364 0.00000
O219 O 0.17669 0.36835 0.43116 0.00000
O220 O 0.14342 0.35869 0.50212 0.00000
Ni221 Ni 0.33940 0.17747 0.52957 0.00000
Ni222 Ni 0.35225 0.10839 0.54360 0.00000
C223 C 0.30574 0.12222 0.57878 0.00000
C224 C 0.35502 0.06008 0.51896 0.00000
O225 O 0.31618 0.09922 0.58937 0.00000
O226 O 0.37648 0.06926 0.53717 0.00000
O227 O 0.33403 0.07774 0.51189 0.00000
O228 O 0.37919 0.12857 0.57624 0.00000
O229 O 0.31644 0.13670 0.55404 0.00000
C230 C 0.38195 0.15547 0.58307 0.00000
C231 C 0.37304 0.15917 0.47783 0.00000
C232 C 0.30529 0.21489 0.51389 0.00000
O233 O 0.37274 0.18569 0.48029 0.00000
O234 O 0.32034 0.21840 0.54265 0.00000
O235 O 0.30717 0.19059 0.49636 0.00000
O236 O 0.36835 0.17669 0.56884 0.00000
O237 O 0.35869 0.14342 0.49788 0.00000
Ni238 Ni 0.82253 0.33940 0.52957 0.00000
Ni239 Ni 0.89161 0.35225 0.54360 0.00000
C240 C 0.87778 0.30574 0.57878 0.00000
C241 C 0.93992 0.35502 0.51896 0.00000
O242 O 0.90079 0.31618 0.58937 0.00000
O243 O 0.93075 0.37648 0.53717 0.00000
O244 O 0.92226 0.33403 0.51189 0.00000
O245 O 0.87143 0.37919 0.57624 0.00000
O246 O 0.86330 0.31644 0.55404 0.00000
C247 C 0.84453 0.38195 0.58307 0.00000
C248 C 0.84083 0.37304 0.47783 0.00000
C249 C 0.78511 0.30530 0.51389 0.00000
O250 O 0.81431 0.37274 0.48029 0.00000
O251 O 0.78161 0.32035 0.54265 0.00000
O252 O 0.80941 0.30717 0.49636 0.00000
O253 O 0.82331 0.36835 0.56884 0.00000
O254 O 0.85658 0.35869 0.49788 0.00000
Ni255 Ni 0.45108 0.68398 0.87192 0.00000
Ni256 Ni 0.43823 0.61698 0.89752 0.00000
C257 C 0.48802 0.61850 0.86537 0.00000
C258 C 0.40996 0.57357 0.89037 0.00000
O259 O 0.48445 0.59641 0.88368 0.00000
O260 O 0.41293 0.58358 0.92259 0.00000
O261 O 0.42002 0.58832 0.86293 0.00000
O262 O 0.45027 0.63673 0.94263 0.00000
O263 O 0.46965 0.63749 0.86280 0.00000
C264 C 0.45932 0.66248 0.94756 0.00000
C265 C 0.39607 0.67819 0.88167 0.00000
C266 C 0.46663 0.71699 0.82455 0.00000
O267 O 0.40375 0.70365 0.88101 0.00000
O268 O 0.47848 0.71910 0.85585 0.00000
O269 O 0.44882 0.69589 0.81874 0.00000
O270 O 0.46173 0.68280 0.92403 0.00000
O271 O 0.41295 0.65799 0.87790 0.00000
Ni272 Ni 0.54892 0.68398 0.12808 0.00000
Ni273 Ni 0.56177 0.61698 0.10248 0.00000
C274 C 0.51198 0.61850 0.13463 0.00000
C275 C 0.59004 0.57357 0.10963 0.00000
O276 O 0.51555 0.59641 0.11632 0.00000
O277 O 0.58707 0.58358 0.07742 0.00000
O278 O 0.57998 0.58832 0.13707 0.00000
O279 O 0.54973 0.63673 0.05737 0.00000
O280 O 0.53035 0.63749 0.13720 0.00000
C281 C 0.54068 0.66248 0.05244 0.00000
C282 C 0.60393 0.67819 0.11833 0.00000
C283 C 0.53337 0.71699 0.17545 0.00000
O284 O 0.59625 0.70365 0.11899 0.00000
O285 O 0.52152 0.71910 0.14415 0.00000
O286 O 0.55118 0.69589 0.18126 0.00000
O287 O 0.53827 0.68280 0.07597 0.00000
O288 O 0.58705 0.65799 0.12210 0.00000
Ni289 Ni 0.31601 0.54892 0.12808 0.00000
Ni290 Ni 0.38302 0.56177 0.10248 0.00000
C291 C 0.38150 0.51198 0.13463 0.00000
C292 C 0.42643 0.59004 0.10963 0.00000
O293 O 0.40359 0.51555 0.11632 0.00000
O294 O 0.41642 0.58707 0.07741 0.00000
O295 O 0.41168 0.57998 0.13707 0.00000
O296 O 0.36327 0.54973 0.05737 0.00000
O297 O 0.36251 0.53035 0.13720 0.00000
C298 C 0.33752 0.54068 0.05244 0.00000
C299 C 0.32181 0.60393 0.11833 0.00000
C300 C 0.28301 0.53337 0.17545 0.00000
O301 O 0.29635 0.59625 0.11899 0.00000
O302 O 0.28090 0.52152 0.14415 0.00000
O303 O 0.30411 0.55118 0.18126 0.00000
O304 O 0.31720 0.53827 0.07597 0.00000
O305 O 0.34200 0.58705 0.12210 0.00000
Ni306 Ni 0.45108 0.31602 0.12808 0.00000
Ni307 Ni 0.43823 0.38302 0.10248 0.00000
C308 C 0.48802 0.38150 0.13463 0.00000
C309 C 0.40996 0.42643 0.10963 0.00000
O310 O 0.48445 0.40359 0.11632 0.00000
O311 O 0.41293 0.41642 0.07741 0.00000
O312 O 0.42002 0.41168 0.13707 0.00000
O313 O 0.45027 0.36327 0.05737 0.00000
O314 O 0.46965 0.36251 0.13720 0.00000
C315 C 0.45932 0.33752 0.05244 0.00000
C316 C 0.39607 0.32181 0.11833 0.00000
C317 C 0.46663 0.28301 0.17545 0.00000
O318 O 0.40375 0.29635 0.11899 0.00000
O319 O 0.47848 0.28090 0.14415 0.00000
O320 O 0.44882 0.30411 0.18126 0.00000
O321 O 0.46173 0.31720 0.07597 0.00000
O322 O 0.41295 0.34201 0.12210 0.00000
Ni323 Ni 0.31601 0.45108 0.87192 0.00000
Ni324 Ni 0.38302 0.43823 0.89752 0.00000
C325 C 0.38150 0.48802 0.86537 0.00000
C326 C 0.42643 0.40996 0.89037 0.00000
O327 O 0.40359 0.48445 0.88368 0.00000
O328 O 0.41642 0.41293 0.92258 0.00000
O329 O 0.41168 0.42002 0.86293 0.00000
O330 O 0.36327 0.45027 0.94263 0.00000
O331 O 0.36251 0.46965 0.86280 0.00000
C332 C 0.33752 0.45932 0.94756 0.00000
C333 C 0.32181 0.39607 0.88167 0.00000
C334 C 0.28301 0.46663 0.82455 0.00000
O335 O 0.29635 0.40375 0.88101 0.00000
O336 O 0.28090 0.47848 0.85585 0.00000
O337 O 0.30411 0.44882 0.81874 0.00000
O338 O 0.31720 0.46173 0.92403 0.00000
O339 O 0.34201 0.41295 0.87790 0.00000
Ni340 Ni 0.54892 0.31602 0.87192 0.00000
Ni341 Ni 0.56177 0.38302 0.89752 0.00000
C342 C 0.51198 0.38150 0.86537 0.00000
C343 C 0.59004 0.42643 0.89037 0.00000
O344 O 0.51555 0.40359 0.88368 0.00000
O345 O 0.58707 0.41642 0.92259 0.00000
O346 O 0.57998 0.41168 0.86293 0.00000
O347 O 0.54973 0.36327 0.94263 0.00000
O348 O 0.53035 0.36251 0.86280 0.00000
C349 C 0.54068 0.33752 0.94756 0.00000
C350 C 0.60393 0.32181 0.88167 0.00000
C351 C 0.53337 0.28301 0.82455 0.00000
O352 O 0.59625 0.29635 0.88101 0.00000
O353 O 0.52152 0.28090 0.85585 0.00000
O354 O 0.55118 0.30411 0.81874 0.00000
O355 O 0.53827 0.31720 0.92403 0.00000
O356 O 0.58705 0.34201 0.87790 0.00000
Ni357 Ni 0.66060 0.82253 0.52957 0.00000
Ni358 Ni 0.64775 0.89161 0.54360 0.00000
C359 C 0.69426 0.87778 0.57878 0.00000
C360 C 0.64498 0.93992 0.51896 0.00000
O361 O 0.68382 0.90079 0.58937 0.00000
O362 O 0.62352 0.93074 0.53717 0.00000
O363 O 0.66597 0.92226 0.51189 0.00000
O364 O 0.62081 0.87143 0.57624 0.00000
O365 O 0.68356 0.86330 0.55404 0.00000
C366 C 0.61805 0.84453 0.58307 0.00000
C367 C 0.62696 0.84083 0.47783 0.00000
C368 C 0.69471 0.78511 0.51389 0.00000
O369 O 0.62726 0.81431 0.48029 0.00000
O370 O 0.67966 0.78161 0.54265 0.00000
O371 O 0.69283 0.80941 0.49636 0.00000
O372 O 0.63165 0.82331 0.56884 0.00000
O373 O 0.64131 0.85658 0.49788 0.00000
Ni374 Ni 0.17206 0.48008 0.69020 0.00000
Ni375 Ni 0.10213 0.47492 0.67508 0.00000
C376 C 0.11528 0.44107 0.72910 0.00000
C377 C 0.05511 0.49736 0.67646 0.00000
O378 O 0.09154 0.43549 0.71557 0.00000
O379 O 0.06283 0.48523 0.64681 0.00000
O380 O 0.07359 0.49925 0.70312 0.00000
O381 O 0.11997 0.45155 0.63634 0.00000
O382 O 0.13071 0.46074 0.71793 0.00000
C383 C 0.14640 0.44493 0.63095 0.00000
C384 C 0.15560 0.52553 0.65461 0.00000
C385 C 0.21101 0.48588 0.73365 0.00000
O386 O 0.18195 0.52196 0.65362 0.00000
O387 O 0.21270 0.46510 0.71107 0.00000
O388 O 0.18761 0.50122 0.73435 0.00000
O389 O 0.16861 0.45307 0.64897 0.00000
O390 O 0.13923 0.50915 0.67098 0.00000
Ni391 Ni 0.51992 0.17206 0.69020 0.00000
Ni392 Ni 0.52508 0.10213 0.67508 0.00000
C393 C 0.55893 0.11527 0.72909 0.00000
C394 C 0.50264 0.05511 0.67646 0.00000
O395 O 0.56451 0.09154 0.71557 0.00000
O396 O 0.51477 0.06283 0.64681 0.00000
O397 O 0.50075 0.07359 0.70312 0.00000
O398 O 0.54845 0.11996 0.63634 0.00000
O399 O 0.53926 0.13071 0.71793 0.00000
C400 C 0.55507 0.14639 0.63095 0.00000
C401 C 0.47447 0.15560 0.65461 0.00000
C402 C 0.51412 0.21101 0.73365 0.00000
O403 O 0.47804 0.18195 0.65362 0.00000
O404 O 0.53490 0.21269 0.71107 0.00000
O405 O 0.49878 0.18761 0.73435 0.00000
O406 O 0.54693 0.16861 0.64897 0.00000
O407 O 0.49085 0.13923 0.67098 0.00000
N408 N 0.83927 0.42459 0.66500 0.00000
N409 N 0.83876 0.39953 0.64586 0.00000
H410 H 0.85508 0.44397 0.58360 0.00000
C411 C 0.84494 0.40453 0.61006 0.00000
C412 C 0.85013 0.43441 0.60570 0.00000
C413 C 0.84691 0.44696 0.64043 0.00000
N414 N 0.56911 0.15906 0.42127 0.00000
N415 N 0.54449 0.15451 0.40206 0.00000
H416 H 0.59128 0.14968 0.33942 0.00000
C417 C 0.55064 0.15037 0.36607 0.00000
C418 C 0.58092 0.15193 0.36165 0.00000
C419 C 0.59255 0.15705 0.39653 0.00000
N420 N 0.87995 0.56209 0.37276 0.00000
N421 N 0.87647 0.58612 0.39350 0.00000
H422 H 0.81216 0.57276 0.37076 0.00000
C423 C 0.84822 0.59352 0.39488 0.00000
C424 C 0.83239 0.57302 0.37434 0.00000
C425 C 0.85237 0.55302 0.36081 0.00000
N426 N 0.42331 0.84715 0.33397 0.00000
N427 N 0.39851 0.84651 0.35366 0.00000
H428 H 0.44509 0.84616 0.41685 0.00000
C429 C 0.40450 0.84577 0.39007 0.00000
C430 C 0.43483 0.84633 0.39437 0.00000
C431 C 0.44664 0.84757 0.35901 0.00000
N432 N 0.16567 0.42597 0.33690 0.00000
N433 N 0.16618 0.40073 0.35565 0.00000
H434 H 0.13923 0.44261 0.41472 0.00000
C435 C 0.15561 0.40460 0.38999 0.00000
C436 C 0.14743 0.43387 0.39367 0.00000
C437 C 0.15345 0.44722 0.36004 0.00000
N438 N 0.55895 0.62072 0.84569 0.00000
N439 N 0.53298 0.63230 0.83707 0.00000
H440 H 0.51585 0.58991 0.90126 0.00000
C441 C 0.51212 0.62084 0.85865 0.00000
C442 C 0.52525 0.60098 0.88297 0.00000
C443 C 0.55480 0.60120 0.87508 0.00000
N444 N 0.55809 0.38384 0.15815 0.00000
N445 N 0.53229 0.37200 0.16700 0.00000
H446 H 0.51662 0.40519 0.09402 0.00000
C447 C 0.51210 0.37956 0.14188 0.00000
C448 C 0.52554 0.39698 0.11494 0.00000
C449 C 0.55460 0.39935 0.12498 0.00000
N450 N 0.57034 0.82357 0.42002 0.00000
N451 N 0.58913 0.82286 0.44851 0.00000
H452 H 0.60653 0.88140 0.41023 0.00000
C453 C 0.60642 0.84641 0.44771 0.00000
C454 C 0.59822 0.86359 0.41733 0.00000
C455 C 0.57524 0.84935 0.40018 0.00000
N456 N 0.17514 0.59269 0.39398 0.00000
N457 N 0.17769 0.61086 0.42295 0.00000
H458 H 0.11764 0.58159 0.43960 0.00000
C459 C 0.15424 0.60866 0.44499 0.00000
C460 C 0.13558 0.58766 0.42983 0.00000
C461 C 0.14894 0.57735 0.39794 0.00000
N462 N 0.42101 0.85594 0.53591 0.00000
N463 N 0.44050 0.85620 0.56365 0.00000
H464 H 0.38251 0.84626 0.60721 0.00000
C465 C 0.42698 0.85251 0.59629 0.00000
C466 C 0.39711 0.84930 0.58944 0.00000
C467 C 0.39343 0.85110 0.55135 0.00000
N468 N 0.16143 0.60044 0.64696 0.00000
N469 N 0.16051 0.57466 0.66447 0.00000
H470 H 0.14212 0.55672 0.58422 0.00000
C471 C 0.15222 0.55365 0.64086 0.00000
C472 C 0.14785 0.56635 0.60596 0.00000
C473 C 0.15401 0.59577 0.60975 0.00000
N474 N 0.42357 0.15508 0.66596 0.00000
N475 N 0.39870 0.15567 0.64643 0.00000
H476 H 0.44489 0.15132 0.58302 0.00000
C477 C 0.40450 0.15446 0.60999 0.00000
C478 C 0.43476 0.15260 0.60554 0.00000
C479 C 0.44672 0.15263 0.64085 0.00000
N480 N 0.39484 0.14082 0.38399 0.00000
N481 N 0.37551 0.14512 0.41137 0.00000
H482 H 0.43431 0.15487 0.45322 0.00000
C483 C 0.38943 0.15115 0.44317 0.00000
C484 C 0.41944 0.15115 0.43604 0.00000
C485 C 0.42279 0.14500 0.39864 0.00000
N486 N 0.56345 0.81847 0.64374 0.00000
N487 N 0.58936 0.81727 0.62658 0.00000
H488 H 0.56869 0.87996 0.60546 0.00000
C489 C 0.59450 0.84231 0.60854 0.00000
C490 C 0.57083 0.86097 0.61463 0.00000
C491 C 0.55145 0.84605 0.63719 0.00000
N492 N 0.41452 0.50821 0.86103 0.00000
N493 N 0.42423 0.53375 0.87428 0.00000
H494 H 0.35717 0.54512 0.87101 0.00000
C495 C 0.40185 0.55206 0.87966 0.00000
C496 C 0.37612 0.53756 0.86983 0.00000
C497 C 0.38411 0.50982 0.85855 0.00000
N498 N 0.59161 0.53102 0.09230 0.00000
N499 N 0.60088 0.50523 0.10525 0.00000
H500 H 0.62653 0.54780 0.16445 0.00000
C501 C 0.61655 0.50906 0.13627 0.00000
C502 C 0.61724 0.53892 0.14424 0.00000
C503 C 0.60121 0.55269 0.11677 0.00000
N504 N 0.44285 0.61242 0.16040 0.00000
N505 N 0.46852 0.62444 0.16947 0.00000
H506 H 0.48247 0.59889 0.09113 0.00000
C507 C 0.48795 0.62009 0.14223 0.00000
C508 C 0.47410 0.60474 0.11365 0.00000
C509 C 0.44558 0.60024 0.12495 0.00000
N510 N 0.40072 0.44749 0.16312 0.00000
N511 N 0.38833 0.47277 0.17314 0.00000
H512 H 0.38646 0.47765 0.08673 0.00000
C513 C 0.38122 0.48830 0.14295 0.00000
C514 C 0.38906 0.47212 0.11155 0.00000
C515 C 0.40101 0.44625 0.12430 0.00000
N516 N 0.49523 0.40340 0.89177 0.00000
N517 N 0.46890 0.41206 0.90357 0.00000
H518 H 0.45198 0.37138 0.83752 0.00000
C519 C 0.44798 0.40014 0.88248 0.00000
C520 C 0.46138 0.38246 0.85579 0.00000
C521 C 0.49113 0.38426 0.86197 0.00000
N522 N 0.63975 0.47706 0.88944 0.00000
N523 N 0.62957 0.45048 0.89789 0.00000
H524 H 0.58092 0.47325 0.84466 0.00000
C525 C 0.60405 0.44583 0.88076 0.00000
C526 C 0.59741 0.47057 0.85963 0.00000
C527 C 0.62011 0.49008 0.86476 0.00000
N528 N 0.82384 0.40871 0.39549 0.00000
N529 N 0.82143 0.39054 0.42448 0.00000
H530 H 0.88335 0.41679 0.43783 0.00000
C531 C 0.84570 0.39150 0.44517 0.00000
C532 C 0.86482 0.41165 0.42907 0.00000
C533 C 0.85086 0.42275 0.39803 0.00000
N534 N 0.16252 0.39794 0.61531 0.00000
N535 N 0.16610 0.37949 0.58681 0.00000
H536 H 0.13081 0.42958 0.54908 0.00000
C537 C 0.15328 0.39016 0.55626 0.00000
C538 C 0.14099 0.41720 0.56520 0.00000
C539 C 0.14715 0.42224 0.60230 0.00000
N540 N 0.60343 0.13316 0.61294 0.00000
N541 N 0.62314 0.13748 0.58602 0.00000
H542 H 0.56716 0.16366 0.54970 0.00000
C543 C 0.61054 0.15030 0.55668 0.00000
C544 C 0.58111 0.15492 0.56511 0.00000
C545 C 0.57675 0.14444 0.60074 0.00000
N546 N 0.82277 0.61226 0.57941 0.00000
N547 N 0.82672 0.59352 0.60753 0.00000
H548 H 0.87958 0.57815 0.55657 0.00000
C549 C 0.85039 0.57709 0.60135 0.00000
C550 C 0.86276 0.58583 0.56761 0.00000
C551 C 0.84553 0.60823 0.55405 0.00000
N552 N 0.98963 0.47110 0.66186 0.00000
N553 N 0.01853 0.47496 0.66447 0.00000
H554 H 0.99547 0.53132 0.70317 0.00000
C555 C 0.02439 0.50028 0.68146 0.00000
C556 C 0.99789 0.51349 0.69087 0.00000
C557 C 0.97601 0.49490 0.67891 0.00000
N558 N 0.47068 0.01869 0.31838 0.00000
N559 N 0.46741 0.98970 0.32076 0.00000
H560 H 0.53499 0.99505 0.31296 0.00000
C561 C 0.49343 0.97651 0.31850 0.00000
C562 C 0.51485 0.99806 0.31491 0.00000
C563 C 0.50052 0.02464 0.31531 0.00000
N564 N 0.98189 0.47476 0.29743 0.00000
N565 N 0.01072 0.47041 0.30004 0.00000
H566 H 0.00449 0.53173 0.33681 0.00000
C567 C 0.02349 0.49341 0.31624 0.00000
C568 C 0.00177 0.51370 0.32509 0.00000
C569 C 0.97553 0.50175 0.31365 0.00000
N570 N 0.63832 0.52281 0.01050 0.00000
N571 N 0.64014 0.49914 0.03221 0.00000
H572 H 0.68957 0.48677 0.97475 0.00000
C573 C 0.66124 0.48137 0.01993 0.00000
C574 C 0.67413 0.49433 0.98881 0.00000
C575 C 0.65991 0.52060 0.98318 0.00000
N576 N 0.53093 0.98992 0.66701 0.00000
N577 N 0.52679 0.01878 0.66964 0.00000
H578 H 0.46673 0.99519 0.69720 0.00000
C579 C 0.49982 0.02441 0.68205 0.00000
C580 C 0.48574 0.99777 0.68830 0.00000
C581 C 0.50550 0.97607 0.67925 0.00000
N582 N 0.38117 0.01257 0.51682 0.00000
N583 N 0.38108 0.98402 0.50885 0.00000
H584 H 0.31755 0.00153 0.48713 0.00000
C585 C 0.35485 0.97601 0.49600 0.00000
C586 C 0.33698 0.00010 0.49510 0.00000
C587 C 0.35371 0.02383 0.50779 0.00000
N588 N 0.01867 0.64139 0.46374 0.00000
N589 N 0.98977 0.64342 0.45884 0.00000
H590 H 0.99497 0.65387 0.54422 0.00000
C591 C 0.97655 0.64854 0.49137 0.00000
C592 C 0.99802 0.65031 0.51890 0.00000
C593 C 0.02457 0.64616 0.50137 0.00000
N594 N 0.67939 0.98482 0.49414 0.00000
N595 N 0.67900 0.01396 0.49131 0.00000
H596 H 0.61330 0.00010 0.50642 0.00000
C597 C 0.65175 0.02395 0.49570 0.00000
C598 C 0.63345 0.00010 0.50220 0.00000
C599 C 0.65096 0.97546 0.50167 0.00000
N600 N 0.00993 0.34000 0.46020 0.00000
N601 N 0.98109 0.34206 0.46566 0.00000
H602 H 0.00496 0.36213 0.54269 0.00000
C603 C 0.97559 0.35116 0.50032 0.00000
C604 C 0.00229 0.35562 0.51828 0.00000
C605 C 0.02390 0.34893 0.49281 0.00000
N606 N 0.50509 0.65488 0.95751 0.00000
N607 N 0.52859 0.65327 0.97955 0.00000
H608 H 0.48131 0.67504 0.03539 0.00000
C609 C 0.52169 0.66161 0.01411 0.00000
C610 C 0.49201 0.66868 0.01476 0.00000
C611 C 0.48150 0.66409 0.97919 0.00000
N612 N 0.31540 0.47505 0.01458 0.00000
N613 N 0.31455 0.50031 0.03326 0.00000
H614 H 0.36248 0.51358 0.97408 0.00000
C615 C 0.33398 0.51908 0.01906 0.00000
C616 C 0.34799 0.50546 0.98922 0.00000
C617 C 0.33600 0.47784 0.98613 0.00000
N618 N 0.52863 0.34692 0.02155 0.00000
N619 N 0.50431 0.34487 0.04204 0.00000
H620 H 0.48091 0.32776 0.96364 0.00000
C621 C 0.48175 0.33699 0.02064 0.00000
C622 C 0.49196 0.33336 0.98431 0.00000
C623 C 0.52157 0.33927 0.98503 0.00000
N624 N 0.78580 0.52498 0.78859 0.00000
N625 N 0.76690 0.52900 0.81651 0.00000
H626 H 0.72465 0.51526 0.75087 0.00000
C627 C 0.73950 0.52575 0.80428 0.00000
C628 C 0.74060 0.51886 0.76645 0.00000
C629 C 0.76980 0.51803 0.75671 0.00000
N630 N 0.50199 0.27380 0.21694 0.00000
N631 N 0.50837 0.25394 0.24301 0.00000
H632 H 0.44898 0.23028 0.21327 0.00000
C633 C 0.48722 0.23382 0.24485 0.00000
C634 C 0.46609 0.24073 0.21822 0.00000
C635 C 0.47561 0.26572 0.20034 0.00000
N636 N 0.78481 0.46827 0.21484 0.00000
N637 N 0.76626 0.46427 0.18653 0.00000
H638 H 0.72532 0.49248 0.24570 0.00000
C639 C 0.73954 0.47351 0.19593 0.00000
C640 C 0.74080 0.48446 0.23217 0.00000
C641 C 0.76942 0.48148 0.24388 0.00000
N642 N 0.54186 0.76532 0.19045 0.00000
N643 N 0.53688 0.78246 0.21992 0.00000
H644 H 0.49863 0.72825 0.23927 0.00000
C645 C 0.51832 0.76939 0.24335 0.00000
C646 C 0.51109 0.74210 0.22860 0.00000
C647 C 0.52622 0.73941 0.19550 0.00000
N648 N 0.28072 0.52600 0.23416 0.00000
N649 N 0.26210 0.51808 0.26102 0.00000
H650 H 0.22065 0.52081 0.19238 0.00000
C651 C 0.23514 0.51525 0.24713 0.00000
C652 C 0.23631 0.52129 0.20907 0.00000
C653 C 0.26511 0.52771 0.20085 0.00000
N654 N 0.50274 0.75211 0.81105 0.00000
N655 N 0.50711 0.77161 0.78388 0.00000
H656 H 0.45078 0.74034 0.75593 0.00000
C657 C 0.48643 0.76893 0.75782 0.00000
C658 C 0.46733 0.74675 0.76881 0.00000
C659 C 0.47743 0.73642 0.80258 0.00000
N660 N 0.25030 0.76743 0.48494 0.00000
N661 N 0.23037 0.74721 0.49377 0.00000
H662 H 0.28823 0.71381 0.51036 0.00000
C663 C 0.24357 0.72267 0.50496 0.00000
C664 C 0.27373 0.72725 0.50382 0.00000
C665 C 0.27793 0.75559 0.49165 0.00000
N666 N 0.74943 0.23332 0.48238 0.00000
N667 N 0.76946 0.25345 0.49122 0.00000
H668 H 0.71195 0.28545 0.51330 0.00000
C669 C 0.75644 0.27737 0.50468 0.00000
C670 C 0.72632 0.27245 0.50508 0.00000
C671 C 0.72197 0.24455 0.49146 0.00000
N672 N 0.72517 0.70458 0.49994 0.00000
N673 N 0.70509 0.72561 0.50374 0.00000
H674 H 0.76233 0.76230 0.49977 0.00000
C675 C 0.71798 0.75183 0.50446 0.00000
C676 C 0.74805 0.74771 0.50043 0.00000
C677 C 0.75251 0.71795 0.49712 0.00000
N678 N 0.27501 0.24747 0.46342 0.00000
N679 N 0.25598 0.26925 0.45803 0.00000
H680 H 0.25855 0.26694 0.54457 0.00000
C681 C 0.24674 0.27969 0.49073 0.00000
C682 C 0.26079 0.26412 0.51897 0.00000
C683 C 0.27886 0.24408 0.50172 0.00000
N684 N 0.26462 0.50686 0.79459 0.00000
N685 N 0.24467 0.51236 0.76831 0.00000
H686 H 0.24098 0.44453 0.77372 0.00000
C687 C 0.23275 0.48739 0.75636 0.00000
C688 C 0.24534 0.46439 0.77624 0.00000
C689 C 0.26516 0.47672 0.80064 0.00000
N690 N 0.49423 0.25353 0.80607 0.00000
N691 N 0.48954 0.23381 0.77927 0.00000
H692 H 0.55314 0.25346 0.76118 0.00000
C693 C 0.51309 0.23160 0.75742 0.00000
C694 C 0.53443 0.25065 0.77098 0.00000
C695 C 0.52264 0.26418 0.80191 0.00000
loop_
_geom_bond_atom_site_label_1
_geom_bond_atom_site_label_2
_geom_bond_distance
_geom_bond_site_symmetry_2
_ccdc_geom_bond_type
Ni0 O8 2.304 . S
Ni0 O12 2.357 . S
Ni0 O13 2.109 . S
Ni0 O14 1.981 . S
Ni0 O15 1.927 . S
Ni0 O16 2.112 . S
Ni1 O4 2.357 . S
Ni1 O5 2.109 . S
Ni1 O6 1.981 . S
Ni1 O7 1.927 . S
Ni1 O8 2.112 . S
Ni1 O16 2.304 . S
C2 O4 1.211 . D
C2 O8 1.207 . S
C3 O5 1.247 . A
C3 O6 1.275 . A
O7 C9 1.256 . A
C9 O15 1.256 . A
C10 O12 1.211 . D
C10 O16 1.207 . S
C11 O13 1.247 . A
C11 O14 1.275 . A
Ni17 O25 2.304 . S
Ni17 O29 2.357 . S
Ni17 O30 2.109 . S
Ni17 O31 1.981 . S
Ni17 O32 1.927 . S
Ni17 O33 2.112 . S
Ni18 O21 2.357 . S
Ni18 O22 2.109 . S
Ni18 O23 1.981 . S
Ni18 O24 1.927 . S
Ni18 O25 2.112 . S
Ni18 O33 2.304 . S
C19 O21 1.211 . D
C19 O25 1.207 . S
C20 O22 1.247 . A
C20 O23 1.275 . A
O24 C26 1.256 . A
C26 O32 1.256 . A
C27 O29 1.211 . D
C27 O33 1.207 . S
C28 O30 1.247 . A
C28 O31 1.275 . A
Ni34 O42 2.304 . S
Ni34 O46 2.357 . S
Ni34 O47 2.109 . S
Ni34 O48 1.981 . S
Ni34 O49 1.927 . S
Ni34 O50 2.112 . S
Ni35 O38 2.357 . S
Ni35 O39 2.109 . S
Ni35 O40 1.981 . S
Ni35 O41 1.927 . S
Ni35 O42 2.112 . S
Ni35 O50 2.304 . S
C36 O38 1.211 . D
C36 O42 1.207 . S
C37 O39 1.247 . A
C37 O40 1.275 . A
O41 C43 1.256 . A
C43 O49 1.256 . A
C44 O46 1.211 . D
C44 O50 1.207 . S
C45 O47 1.247 . A
C45 O48 1.275 . A
Ni51 O59 2.304 . S
Ni51 O63 2.357 . S
Ni51 O64 2.109 . S
Ni51 O65 1.981 . S
Ni51 O66 1.927 . S
Ni51 O67 2.112 . S
Ni52 O55 2.357 . S
Ni52 O56 2.109 . S
Ni52 O57 1.981 . S
Ni52 O58 1.927 . S
Ni52 O59 2.112 . S
Ni52 O67 2.304 . S
C53 O55 1.211 . D
C53 O59 1.207 . S
C54 O56 1.247 . A
C54 O57 1.275 . A
O58 C60 1.256 . A
C60 O66 1.256 . A
C61 O63 1.211 . D
C61 O67 1.207 . S
C62 O64 1.247 . A
C62 O65 1.275 . A
Ni68 O76 2.304 . S
Ni68 O80 2.357 . S
Ni68 O81 2.109 . S
Ni68 O82 1.981 . S
Ni68 O83 1.927 . S
Ni68 O84 2.112 . S
Ni69 O72 2.357 . S
Ni69 O73 2.109 . S
Ni69 O74 1.981 . S
Ni69 O75 1.927 . S
Ni69 O76 2.112 . S
Ni69 O84 2.304 . S
C70 O72 1.211 . D
C70 O76 1.207 . S
C71 O73 1.247 . A
C71 O74 1.275 . A
O75 C77 1.256 . A
C77 O83 1.256 . A
C78 O80 1.211 . D
C78 O84 1.207 . S
C79 O81 1.247 . A
C79 O82 1.275 . A
Ni85 O93 2.304 . S
Ni85 O97 2.357 . S
Ni85 O98 2.109 . S
Ni85 O99 1.981 . S
Ni85 O100 1.927 . S
Ni85 O101 2.112 . S
Ni86 O89 2.357 . S
Ni86 O90 2.109 . S
Ni86 O91 1.981 . S
Ni86 O92 1.927 . S
Ni86 O93 2.112 . S
Ni86 O101 2.304 . S
C87 O89 1.211 . D
C87 O93 1.207 . S
C88 O90 1.247 . A
C88 O91 1.275 . A
O92 C94 1.256 . A
C94 O100 1.256 . A
C95 O97 1.211 . D
C95 O101 1.207 . S
C96 O98 1.247 . A
C96 O99 1.275 . A
Ni102 O110 2.304 . S
Ni102 O114 2.357 . S
Ni102 O115 2.109 . S
Ni102 O116 1.981 . S
Ni102 O117 1.927 . S
Ni102 O118 2.112 . S
Ni103 O106 2.357 . S
Ni103 O107 2.109 . S
Ni103 O108 1.981 . S
Ni103 O109 1.927 . S
Ni103 O110 2.112 . S
Ni103 O118 2.304 . S
C104 O106 1.211 . D
C104 O110 1.207 . S
C105 O107 1.247 . A
C105 O108 1.275 . A
O109 C111 1.256 . A
C111 O117 1.256 . A
C112 O114 1.211 . D
C112 O118 1.207 . S
C113 O115 1.247 . A
C113 O116 1.275 . A
Ni119 O127 2.304 . S
Ni119 O131 2.357 . S
Ni119 O132 2.109 . S
Ni119 O133 1.981 . S
Ni119 O134 1.927 . S
Ni119 O135 2.112 . S
Ni120 O123 2.357 . S
Ni120 O124 2.109 . S
Ni120 O125 1.981 . S
Ni120 O126 1.927 . S
Ni120 O127 2.112 . S
Ni120 O135 2.304 . S
C121 O123 1.211 . D
C121 O127 1.207 . S
C122 O124 1.247 . A
C122 O125 1.275 . A
O126 C128 1.256 . A
C128 O134 1.256 . A
C129 O131 1.211 . D
C129 O135 1.207 . S
C130 O132 1.247 . A
C130 O133 1.275 . A
Ni136 O144 2.304 . S
Ni136 O148 2.357 . S
Ni136 O149 2.109 . S
Ni136 O150 1.981 . S
Ni136 O151 1.927 . S
Ni136 O152 2.112 . S
Ni137 O140 2.357 . S
Ni137 O141 2.109 . S
Ni137 O142 1.981 . S
Ni137 O143 1.927 . S
Ni137 O144 2.112 . S
Ni137 O152 2.304 . S
C138 O140 1.211 . D
C138 O144 1.207 . S
C139 O141 1.247 . A
C139 O142 1.275 . A
O143 C145 1.256 . A
C145 O151 1.256 . A
C146 O148 1.211 . D
C146 O152 1.207 . S
C147 O149 1.247 . A
C147 O150 1.275 . A
Ni153 O161 2.304 . S
Ni153 O165 2.357 . S
Ni153 O166 2.109 . S
Ni153 O167 1.981 . S
Ni153 O168 1.927 . S
Ni153 O169 2.112 . S
Ni154 O157 2.357 . S
Ni154 O158 2.109 . S
Ni154 O159 1.981 . S
Ni154 O160 1.927 . S
Ni154 O161 2.112 . S
Ni154 O169 2.304 . S
C155 O157 1.211 . D
C155 O161 1.207 . S
C156 O158 1.247 . A
C156 O159 1.275 . A
O160 C162 1.256 . A
C162 O168 1.256 . A
C163 O165 1.211 . D
C163 O169 1.207 . S
C164 O166 1.247 . A
C164 O167 1.275 . A
Ni170 O178 2.304 . S
Ni170 O182 2.357 . S
Ni170 O183 2.109 . S
Ni170 O184 1.981 . S
Ni170 O185 1.927 . S
Ni170 O186 2.112 . S
Ni171 O174 2.357 . S
Ni171 O175 2.109 . S
Ni171 O176 1.981 . S
Ni171 O177 1.927 . S
Ni171 O178 2.112 . S
Ni171 O186 2.304 . S
C172 O174 1.211 . D
C172 O178 1.207 . S
C173 O175 1.247 . A
C173 O176 1.275 . A
O177 C179 1.256 . A
C179 O185 1.256 . A
C180 O182 1.211 . D
C180 O186 1.207 . S
C181 O183 1.247 . A
C181 O184 1.275 . A
Ni187 O195 2.304 . S
Ni187 O199 2.357 . S
Ni187 O200 2.109 . S
Ni187 O201 1.981 . S
Ni187 O202 1.927 . S
Ni187 O203 2.112 . S
Ni188 O191 2.357 . S
Ni188 O192 2.109 . S
Ni188 O193 1.981 . S
Ni188 O194 1.927 . S
Ni188 O195 2.112 . S
Ni188 O203 2.304 . S
C189 O191 1.211 . D
C189 O195 1.207 . S
C190 O192 1.247 . A
C190 O193 1.275 . A
O194 C196 1.256 . A
C196 O202 1.256 . A
C197 O199 1.211 . D
C197 O203 1.207 . S
C198 O200 1.247 . A
C198 O201 1.275 . A
Ni204 O212 2.304 . S
Ni204 O216 2.357 . S
Ni204 O217 2.109 . S
Ni204 O218 1.981 . S
Ni204 O219 1.927 . S
Ni204 O220 2.112 . S
Ni205 O208 2.357 . S
Ni205 O209 2.109 . S
Ni205 O210 1.981 . S
Ni205 O211 1.927 . S
Ni205 O212 2.112 . S
Ni205 O220 2.304 . S
C206 O208 1.211 . D
C206 O212 1.207 . S
C207 O209 1.247 . A
C207 O210 1.275 . A
O211 C213 1.256 . A
C213 O219 1.256 . A
C214 O216 1.211 . D
C214 O220 1.207 . S
C215 O217 1.247 . A
C215 O218 1.275 . A
Ni221 O229 2.304 . S
Ni221 O233 2.357 . S
Ni221 O234 2.109 . S
Ni221 O235 1.981 . S
Ni221 O236 1.927 . S
Ni221 O237 2.112 . S
Ni222 O225 2.357 . S
Ni222 O226 2.109 . S
Ni222 O227 1.981 . S
Ni222 O228 1.927 . S
Ni222 O229 2.112 . S
Ni222 O237 2.304 . S
C223 O225 1.211 . D
C223 O229 1.207 . S
C224 O226 1.247 . A
C224 O227 1.275 . A
O228 C230 1.256 . A
C230 O236 1.256 . A
C231 O233 1.211 . D
C231 O237 1.207 . S
C232 O234 1.247 . A
C232 O235 1.275 . A
Ni238 O246 2.304 . S
Ni238 O250 2.357 . S
Ni238 O251 2.109 . S
Ni238 O252 1.981 . S
Ni238 O253 1.927 . S
Ni238 O254 2.112 . S
Ni239 O242 2.357 . S
Ni239 O243 2.109 . S
Ni239 O244 1.981 . S
Ni239 O245 1.927 . S
Ni239 O246 2.112 . S
Ni239 O254 2.304 . S
C240 O242 1.211 . D
C240 O246 1.207 . S
C241 O243 1.247 . A
C241 O244 1.275 . A
O245 C247 1.256 . A
C247 O253 1.256 . A
C248 O250 1.211 . D
C248 O254 1.207 . S
C249 O251 1.247 . A
C249 O252 1.275 . A
Ni255 O263 2.304 . S
Ni255 O267 2.357 . S
Ni255 O268 2.109 . S
Ni255 O269 1.981 . S
Ni255 O270 1.927 . S
Ni255 O271 2.112 . S
Ni256 O259 2.357 . S
Ni256 O260 2.109 . S
Ni256 O261 1.981 . S
Ni256 O262 1.927 . S
Ni256 O263 2.112 . S
Ni256 O271 2.304 . S
C257 O259 1.211 . D
C257 O263 1.207 . S
C258 O260 1.247 . A
C258 O261 1.275 . A
O262 C264 1.256 . A
C264 O270 1.256 . A
C265 O267 1.211 . D
C265 O271 1.207 . S
C266 O268 1.247 . A
C266 O269 1.275 . A
Ni272 O280 2.304 . S
Ni272 O284 2.357 . S
Ni272 O285 2.109 . S
Ni272 O286 1.981 . S
Ni272 O287 1.927 . S
Ni272 O288 2.112 . S
Ni273 O276 2.357 . S
Ni273 O277 2.109 . S
Ni273 O278 1.981 . S
Ni273 O279 1.927 . S
Ni273 O280 2.112 . S
Ni273 O288 2.304 . S
C274 O276 1.211 . D
C274 O280 1.207 . S
C275 O277 1.247 . A
C275 O278 1.275 . A
O279 C281 1.256 . A
C281 O287 1.256 . A
C282 O284 1.211 . D
C282 O288 1.207 . S
C283 O285 1.247 . A
C283 O286 1.275 . A
Ni289 O297 2.304 . S
Ni289 O301 2.357 . S
Ni289 O302 2.109 . S
Ni289 O303 1.981 . S
Ni289 O304 1.927 . S
Ni289 O305 2.112 . S
Ni290 O293 2.357 . S
Ni290 O294 2.109 . S
Ni290 O295 1.981 . S
Ni290 O296 1.927 . S
Ni290 O297 2.112 . S
Ni290 O305 2.304 . S
C291 O293 1.211 . D
C291 O297 1.207 . S
C292 O294 1.247 . A
C292 O295 1.275 . A
O296 C298 1.256 . A
C298 O304 1.256 . A
C299 O301 1.211 . D
C299 O305 1.207 . S
C300 O302 1.247 . A
C300 O303 1.275 . A
Ni306 O314 2.304 . S
Ni306 O318 2.357 . S
Ni306 O319 2.109 . S
Ni306 O320 1.981 . S
Ni306 O321 1.927 . S
Ni306 O322 2.112 . S
Ni307 O310 2.357 . S
Ni307 O311 2.109 . S
Ni307 O312 1.981 . S
Ni307 O313 1.927 . S
Ni307 O314 2.112 . S
Ni307 O322 2.304 . S
C308 O310 1.211 . D
C308 O314 1.207 . S
C309 O311 1.247 . A
C309 O312 1.275 . A
O313 C315 1.256 . A
C315 O321 1.256 . A
C316 O318 1.211 . D
C316 O322 1.207 . S
C317 O319 1.247 . A
C317 O320 1.275 . A
Ni323 O331 2.304 . S
Ni323 O335 2.357 . S
Ni323 O336 2.109 . S
Ni323 O337 1.981 . S
Ni323 O338 1.927 . S
Ni323 O339 2.112 . S
Ni324 O327 2.357 . S
Ni324 O328 2.109 . S
Ni324 O329 1.981 . S
Ni324 O330 1.927 . S
Ni324 O331 2.112 . S
Ni324 O339 2.304 . S
C325 O327 1.211 . D
C325 O331 1.207 . S
C326 O328 1.247 . A
C326 O329 1.275 . A
O330 C332 1.256 . A
C332 O338 1.256 . A
C333 O335 1.211 . D
C333 O339 1.207 . S
C334 O336 1.247 . A
C334 O337 1.275 . A
Ni340 O348 2.304 . S
Ni340 O352 2.357 . S
Ni340 O353 2.109 . S
Ni340 O354 1.981 . S
Ni340 O355 1.927 . S
Ni340 O356 2.112 . S
Ni341 O344 2.357 . S
Ni341 O345 2.109 . S
Ni341 O346 1.981 . S
Ni341 O347 1.927 . S
Ni341 O348 2.112 . S
Ni341 O356 2.304 . S
C342 O344 1.211 . D
C342 O348 1.207 . S
C343 O345 1.247 . A
C343 O346 1.275 . A
O347 C349 1.256 . A
C349 O355 1.256 . A
C350 O352 1.211 . D
C350 O356 1.207 . S
C351 O353 1.247 . A
C351 O354 1.275 . A
Ni357 O365 2.304 . S
Ni357 O369 2.357 . S
Ni357 O370 2.109 . S
Ni357 O371 1.981 . S
Ni357 O372 1.927 . S
Ni357 O373 2.112 . S
Ni358 O361 2.357 . S
Ni358 O362 2.109 . S
Ni358 O363 1.981 . S
Ni358 O364 1.927 . S
Ni358 O365 2.112 . S
Ni358 O373 2.304 . S
C359 O361 1.211 . D
C359 O365 1.207 . S
C360 O362 1.247 . A
C360 O363 1.275 . A
O364 C366 1.256 . A
C366 O372 1.256 . A
C367 O369 1.211 . D
C367 O373 1.207 . S
C368 O370 1.247 . A
C368 O371 1.275 . A
Ni374 O382 2.304 . S
Ni374 O386 2.357 . S
Ni374 O387 2.109 . S
Ni374 O388 1.981 . S
Ni374 O389 1.927 . S
Ni374 O390 2.112 . S
Ni375 O378 2.357 . S
Ni375 O379 2.109 . S
Ni375 O380 1.981 . S
Ni375 O381 1.927 . S
Ni375 O382 2.112 . S
Ni375 O390 2.304 . S
C376 O378 1.211 . D
C376 O382 1.207 . S
C377 O379 1.247 . A
C377 O380 1.275 . A
O381 C383 1.256 . A
C383 O389 1.256 . A
C384 O386 1.211 . D
C384 O390 1.207 . S
C385 O387 1.247 . A
C385 O388 1.275 . A
Ni391 O399 2.304 . S
Ni391 O403 2.357 . S
Ni391 O404 2.109 . S
Ni391 O405 1.981 . S
Ni391 O406 1.927 . S
Ni391 O407 2.112 . S
Ni392 O395 2.357 . S
Ni392 O396 2.109 . S
Ni392 O397 1.981 . S
Ni392 O398 1.927 . S
Ni392 O399 2.112 . S
Ni392 O407 2.304 . S
C393 O395 1.211 . D
C393 O399 1.207 . S
C394 O396 1.247 . A
C394 O397 1.275 . A
O398 C400 1.256 . A
C400 O406 1.256 . A
C401 O403 1.211 . D
C401 O407 1.207 . S
C402 O404 1.247 . A
C402 O405 1.275 . A
N408 N409 1.331 . A
N408 C413 1.390 . A
N409 C411 1.331 . A
H410 C412 0.930 . S
C411 C412 1.390 . A
C412 C413 1.375 . A
N414 N415 1.331 . A
N414 C419 1.390 . A
N415 C417 1.331 . A
H416 C418 0.930 . S
C417 C418 1.390 . A
C418 C419 1.375 . A
N420 N421 1.331 . A
N420 C425 1.390 . A
N421 C423 1.331 . A
H422 C424 0.930 . S
C423 C424 1.390 . A
C424 C425 1.375 . A
N426 N427 1.331 . A
N426 C431 1.390 . A
N427 C429 1.331 . A
H428 C430 0.930 . S
C429 C430 1.390 . A
C430 C431 1.375 . A
N432 N433 1.331 . A
N432 C437 1.390 . A
N433 C435 1.331 . A
H434 C436 0.930 . S
C435 C436 1.390 . A
C436 C437 1.375 . A
N438 N439 1.331 . A
N438 C443 1.390 . A
N439 C441 1.331 . A
H440 C442 0.930 . S
C441 C442 1.390 . A
C442 C443 1.375 . A
N444 N445 1.331 . A
N444 C449 1.390 . A
N445 C447 1.331 . A
H446 C448 0.930 . S
C447 C448 1.390 . A
C448 C449 1.375 . A
N450 N451 1.331 . A
N450 C455 1.390 . A
N451 C453 1.331 . A
H452 C454 0.930 . S
C453 C454 1.390 . A
C454 C455 1.375 . A
N456 N457 1.331 . A
N456 C461 1.390 . A
N457 C459 1.331 . A
H458 C460 0.930 . S
C459 C460 1.390 . A
C460 C461 1.375 . A
N462 N463 1.331 . A
N462 C467 1.390 . A
N463 C465 1.331 . A
H464 C466 0.930 . S
C465 C466 1.390 . A
C466 C467 1.375 . A
N468 N469 1.331 . A
N468 C473 1.390 . A
N469 C471 1.331 . A
H470 C472 0.930 . S
C471 C472 1.390 . A
C472 C473 1.375 . A
N474 N475 1.331 . A
N474 C479 1.390 . A
N475 C477 1.331 . A
H476 C478 0.930 . S
C477 C478 1.390 . A
C478 C479 1.375 . A
N480 N481 1.331 . A
N480 C485 1.390 . A
N481 C483 1.331 . A
H482 C484 0.930 . S
C483 C484 1.390 . A
C484 C485 1.375 . A
N486 N487 1.331 . A
N486 C491 1.390 . A
N487 C489 1.331 . A
H488 C490 0.930 . S
C489 C490 1.390 . A
C490 C491 1.375 . A
N492 N493 1.331 . A
N492 C497 1.390 . A
N493 C495 1.331 . A
H494 C496 0.930 . S
C495 C496 1.390 . A
C496 C497 1.375 . A
N498 N499 1.331 . A
N498 C503 1.390 . A
N499 C501 1.331 . A
H500 C502 0.930 . S
C501 C502 1.390 . A
C502 C503 1.375 . A
N504 N505 1.331 . A
N504 C509 1.390 . A
N505 C507 1.331 . A
H506 C508 0.930 . S
C507 C508 1.390 . A
C508 C509 1.375 . A
N510 N511 1.331 . A
N510 C515 1.390 . A
N511 C513 1.331 . A
H512 C514 0.930 . S
C513 C514 1.390 . A
C514 C515 1.375 . A
N516 N517 1.331 . A
N516 C521 1.390 . A
N517 C519 1.331 . A
H518 C520 0.930 . S
C519 C520 1.390 . A
C520 C521 1.375 . A
N522 N523 1.331 . A
N522 C527 1.390 . A
N523 C525 1.331 . A
H524 C526 0.930 . S
C525 C526 1.390 . A
C526 C527 1.375 . A
N528 N529 1.331 . A
N528 C533 1.390 . A
N529 C531 1.331 . A
H530 C532 0.930 . S
C531 C532 1.390 . A
C532 C533 1.375 . A
N534 N535 1.331 . A
N534 C539 1.390 . A
N535 C537 1.331 . A
H536 C538 0.930 . S
C537 C538 1.390 . A
C538 C539 1.375 . A
N540 N541 1.331 . A
N540 C545 1.390 . A
N541 C543 1.331 . A
H542 C544 0.930 . S
C543 C544 1.390 . A
C544 C545 1.375 . A
N546 N547 1.331 . A
N546 C551 1.390 . A
N547 C549 1.331 . A
H548 C550 0.930 . S
C549 C550 1.390 . A
C550 C551 1.375 . A
N552 N553 1.331 1_655 A
N552 C557 1.390 . A
N553 C555 1.331 . A
H554 C556 0.930 . S
C555 C556 1.390 1_455 A
C556 C557 1.375 . A
N558 N559 1.331 1_545 A
N558 C563 1.390 . A
N559 C561 1.331 . A
H560 C562 0.930 . S
C561 C562 1.390 . A
C562 C563 1.375 1_565 A
N564 N565 1.331 1_655 A
N564 C569 1.390 . A
N565 C567 1.331 . A
H566 C568 0.930 . S
C567 C568 1.390 . A
C568 C569 1.375 1_455 A
N570 N571 1.331 . A
N570 C575 1.390 1_554 A
N571 C573 1.331 . A
H572 C574 0.930 . S
C573 C574 1.390 1_554 A
C574 C575 1.375 . A
N576 N577 1.331 1_565 A
N576 C581 1.390 . A
N577 C579 1.331 . A
H578 C580 0.930 . S
C579 C580 1.390 1_545 A
C580 C581 1.375 . A
N582 N583 1.331 1_545 A
N582 C587 1.390 . A
N583 C585 1.331 . A
H584 C586 0.932 . S
C585 C586 1.366 1_565 A
C586 C587 1.398 . A
N588 N589 1.331 1_455 A
N588 C593 1.390 . A
N589 C591 1.331 . A
H590 C592 0.930 . S
C591 C592 1.390 . A
C592 C593 1.375 1_655 A
N594 N595 1.331 1_565 A
N594 C599 1.390 . A
N595 C597 1.331 . A
H596 C598 0.930 . S
C597 C598 1.389 . A
C598 C599 1.377 1_545 A
N600 N601 1.331 1_455 A
N600 C605 1.390 . A
N601 C603 1.331 . A
H602 C604 0.930 . S
C603 C604 1.390 1_655 A
C604 C605 1.375 . A
N606 N607 1.331 . A
N606 C611 1.390 . A
N607 C609 1.331 1_556 A
H608 C610 0.930 . S
C609 C610 1.390 . A
C610 C611 1.375 1_554 A
N612 N613 1.331 . A
N612 C617 1.390 1_554 A
N613 C615 1.331 . A
H614 C616 0.930 . S
C615 C616 1.390 1_554 A
C616 C617 1.375 . A
N618 N619 1.331 . A
N618 C623 1.390 1_554 A
N619 C621 1.331 . A
H620 C622 0.930 . S
C621 C622 1.390 1_554 A
C622 C623 1.375 . A
N624 N625 1.331 . A
N624 C629 1.390 . A
N625 C627 1.331 . A
H626 C628 0.930 . S
C627 C628 1.390 . A
C628 C629 1.375 . A
N630 N631 1.331 . A
N630 C635 1.390 . A
N631 C633 1.331 . A
H632 C634 0.930 . S
C633 C634 1.390 . A
C634 C635 1.375 . A
N636 N637 1.331 . A
N636 C641 1.390 . A
N637 C639 1.331 . A
H638 C640 0.930 . S
C639 C640 1.390 . A
C640 C641 1.375 . A
N642 N643 1.331 . A
N642 C647 1.390 . A
N643 C645 1.331 . A
H644 C646 0.930 . S
C645 C646 1.390 . A
C646 C647 1.375 . A
N648 N649 1.331 . A
N648 C653 1.390 . A
N649 C651 1.331 . A
H650 C652 0.930 . S
C651 C652 1.390 . A
C652 C653 1.375 . A
N654 N655 1.331 . A
N654 C659 1.390 . A
N655 C657 1.331 . A
H656 C658 0.930 . S
C657 C658 1.390 . A
C658 C659 1.375 . A
N660 N661 1.331 . A
N660 C665 1.390 . A
N661 C663 1.331 . A
H662 C664 0.930 . S
C663 C664 1.390 . A
C664 C665 1.375 . A
N666 N667 1.331 . A
N666 C671 1.390 . A
N667 C669 1.331 . A
H668 C670 0.930 . S
C669 C670 1.390 . A
C670 C671 1.375 . A
N672 N673 1.331 . A
N672 C677 1.390 . A
N673 C675 1.331 . A
H674 C676 0.930 . S
C675 C676 1.390 . A
C676 C677 1.375 . A
N678 N679 1.331 . A
N678 C683 1.390 . A
N679 C681 1.331 . A
H680 C682 0.930 . S
C681 C682 1.390 . A
C682 C683 1.375 . A
N684 N685 1.331 . A
N684 C689 1.390 . A
N685 C687 1.331 . A
H686 C688 0.930 . S
C687 C688 1.390 . A
C688 C689 1.375 . A
N690 N691 1.331 . A
N690 C695 1.390 . A
N691 C693 1.331 . A
H692 C694 0.930 . S
C693 C694 1.390 . A
C694 C695 1.375 . A
C411 C247 1.411 . S
C413 C10 1.357 . S
C417 C27 1.383 . S
C419 C179 1.374 . S
C423 C196 1.378 . S
C425 C44 1.416 . S
C429 C145 1.408 . S
C431 C61 1.366 . S
C435 C213 1.412 . S
C437 C78 1.351 . S
C441 C257 1.129 . S
C443 C88 1.135 . S
C447 C308 1.130 . S
C449 C105 1.132 . S
C453 C367 1.449 . S
C455 C60 1.457 . S
C459 C163 1.458 . S
C461 C77 1.453 . S
C465 C128 1.486 . S
C467 C146 1.473 . S
C471 C384 1.381 . S
C473 C162 1.395 . S
C477 C230 1.409 . S
C479 C401 1.363 . S
C483 C231 1.493 . S
C485 C26 1.463 . S
C489 C366 1.411 . S
C491 C129 1.337 . S
C495 C258 1.115 . S
C497 C325 1.029 . S
C501 C104 0.964 . S
C503 C275 1.108 . S
C507 C274 1.130 . S
C509 C292 1.130 . S
C513 C291 1.119 . S
C515 C309 1.121 . S
C519 C326 1.115 . S
C521 C342 0.966 . S
C525 C343 1.143 . S
C527 C87 1.001 . S
C531 C248 1.456 . S
C533 C43 1.453 . S
C537 C214 1.472 . S
C539 C383 1.456 . S
C543 C180 1.499 . S
C545 C400 1.467 . S
C549 C9 1.466 . S
C551 C197 1.440 . S
C555 C377 1.417 . S
C557 C3 1.463 . S
C561 C54 1.511 . S
C563 C20 1.426 . S
C567 C71 1.523 . S
C569 C37 1.454 . S
C573 C111 1.538 . S
C575 C94 1.573 . S
C579 C394 1.418 . S
C581 C122 1.471 . S
C585 C139 1.729 . S
C587 C224 1.700 . S
C591 C190 1.716 . S
C593 C156 1.736 . S
C597 C173 1.754 . S
C599 C360 1.754 . S
C603 C241 1.765 . S
C605 C207 1.723 . S
C609 C281 1.622 . S
C611 C264 1.519 . S
C615 C298 1.555 . S
C617 C332 1.619 . S
C621 C315 1.529 . S
C623 C349 1.600 . S
C627 C96 1.303 . S
C629 C11 1.215 . S
C633 C28 1.294 . S
C635 C317 1.257 . S
C639 C113 1.300 . S
C641 C45 1.217 . S
C645 C62 1.229 . S
C647 C283 1.290 . S
C651 C79 1.297 . S
C653 C300 1.248 . S
C657 C130 1.258 . S
C659 C266 1.282 . S
C663 C164 1.852 . S
C665 C147 1.844 . S
C669 C249 1.852 . S
C671 C181 1.845 . S
C675 C368 1.880 . S
C677 C198 1.866 . S
C681 C215 1.869 . S
C683 C232 1.846 . S
C687 C385 1.282 . S
C689 C334 1.266 . S
C693 C402 1.267 . S
C695 C351 1.277 . S
