# Generated by pormake.
# Topology lta, (4)-cn, num edge types: 1
# Building blocks:
#     Node 0, Type 0, BuildingBlock: N650, # of connection points: 9
#     Node 1, Type 0, BuildingBlock: N650, # of connection points: 9
#     Node 2, Type 0, BuildingBlock: N650, # of connection points: 9
#     Node 3, Type 0, BuildingBlock: N650, # of connection points: 9
#     Node 4, Type 0, BuildingBlock: N650, # of connection points: 9
#     Node 5, Type 0, BuildingBlock: N650, # of connection points: 9
#     Node 6, Type 0, BuildingBlock: N650, # of connection points: 9
#     Node 7, Type 0, BuildingBlock: N650, # of connection points: 9
#     Node 8, Type 0, BuildingBlock: N650, # of connection points: 9
#     Node 9, Type 0, BuildingBlock: N650, # of connection points: 9
#     Node 10, Type 0, BuildingBlock: N650, # of connection points: 9
#     Node 11, Type 0, BuildingBlock: N650, # of connection points: 9
#     Node 12, Type 0, BuildingBlock: N650, # of connection points: 9
#     Node 13, Type 0, BuildingBlock: N650, # of connection points: 9
#     Node 14, Type 0, BuildingBlock: N650, # of connection points: 9
#     Node 15, Type 0, BuildingBlock: N650, # of connection points: 9
#     Node 16, Type 0, BuildingBlock: N650, # of connection points: 9
#     Node 17, Type 0, BuildingBlock: N650, # of connection points: 9
#     Node 18, Type 0, BuildingBlock: N650, # of connection points: 9
#     Node 19, Type 0, BuildingBlock: N650, # of connection points: 9
#     Node 20, Type 0, BuildingBlock: N650, # of connection points: 9
#     Node 21, Type 0, BuildingBlock: N650, # of connection points: 9
#     Node 22, Type 0, BuildingBlock: N650, # of connection points: 9
#     Node 23, Type 0, BuildingBlock: N650, # of connection points: 9
#     Edge 24, Type (0, 0), BuildingBlock: E51, # of connection points: 2
#     Edge 25, Type (0, 0), BuildingBlock: E51, # of connection points: 2
#     Edge 26, Type (0, 0), BuildingBlock: E51, # of connection points: 2
#     Edge 27, Type (0, 0), BuildingBlock: E51, # of connection points: 2
#     Edge 28, Type (0, 0), BuildingBlock: E51, # of connection points: 2
#     Edge 29, Type (0, 0), BuildingBlock: E51, # of connection points: 2
#     Edge 30, Type (0, 0), BuildingBlock: E51, # of connection points: 2
#     Edge 31, Type (0, 0), BuildingBlock: E51, # of connection points: 2
#     Edge 32, Type (0, 0), BuildingBlock: E51, # of connection points: 2
#     Edge 33, Type (0, 0), BuildingBlock: E51, # of connection points: 2
#     Edge 34, Type (0, 0), BuildingBlock: E51, # of connection points: 2
#     Edge 35, Type (0, 0), BuildingBlock: E51, # of connection points: 2
#     Edge 36, Type (0, 0), BuildingBlock: E51, # of connection points: 2
#     Edge 37, Type (0, 0), BuildingBlock: E51, # of connection points: 2
#     Edge 38, Type (0, 0), BuildingBlock: E51, # of connection points: 2
#     Edge 39, Type (0, 0), BuildingBlock: E51, # of connection points: 2
#     Edge 40, Type (0, 0), BuildingBlock: E51, # of connection points: 2
#     Edge 41, Type (0, 0), BuildingBlock: E51, # of connection points: 2
#     Edge 42, Type (0, 0), BuildingBlock: E51, # of connection points: 2
#     Edge 43, Type (0, 0), BuildingBlock: E51, # of connection points: 2
#     Edge 44, Type (0, 0), BuildingBlock: E51, # of connection points: 2
#     Edge 45, Type (0, 0), BuildingBlock: E51, # of connection points: 2
#     Edge 46, Type (0, 0), BuildingBlock: E51, # of connection points: 2
#     Edge 47, Type (0, 0), BuildingBlock: E51, # of connection points: 2
#     Edge 48, Type (0, 0), BuildingBlock: E51, # of connection points: 2
#     Edge 49, Type (0, 0), BuildingBlock: E51, # of connection points: 2
#     Edge 50, Type (0, 0), BuildingBlock: E51, # of connection points: 2
#     Edge 51, Type (0, 0), BuildingBlock: E51, # of connection points: 2
#     Edge 52, Type (0, 0), BuildingBlock: E51, # of connection points: 2
#     Edge 53, Type (0, 0), BuildingBlock: E51, # of connection points: 2
#     Edge 54, Type (0, 0), BuildingBlock: E51, # of connection points: 2
#     Edge 55, Type (0, 0), BuildingBlock: E51, # of connection points: 2
#     Edge 56, Type (0, 0), BuildingBlock: E51, # of connection points: 2
#     Edge 57, Type (0, 0), BuildingBlock: E51, # of connection points: 2
#     Edge 58, Type (0, 0), BuildingBlock: E51, # of connection points: 2
#     Edge 59, Type (0, 0), BuildingBlock: E51, # of connection points: 2
#     Edge 60, Type (0, 0), BuildingBlock: E51, # of connection points: 2
#     Edge 61, Type (0, 0), BuildingBlock: E51, # of connection points: 2
#     Edge 62, Type (0, 0), BuildingBlock: E51, # of connection points: 2
#     Edge 63, Type (0, 0), BuildingBlock: E51, # of connection points: 2
#     Edge 64, Type (0, 0), BuildingBlock: E51, # of connection points: 2
#     Edge 65, Type (0, 0), BuildingBlock: E51, # of connection points: 2
#     Edge 66, Type (0, 0), BuildingBlock: E51, # of connection points: 2
#     Edge 67, Type (0, 0), BuildingBlock: E51, # of connection points: 2
#     Edge 68, Type (0, 0), BuildingBlock: E51, # of connection points: 2
#     Edge 69, Type (0, 0), BuildingBlock: E51, # of connection points: 2
#     Edge 70, Type (0, 0), BuildingBlock: E51, # of connection points: 2
#     Edge 71, Type (0, 0), BuildingBlock: E51, # of connection points: 2
# Relax obj value: 0.089
# Max RMSD: 0.279
# Mean RMSD: 0.276
data_lta+N650+E51
_symmetry_space_group_name_H-M    P1
_symmetry_Int_Tables_number       1
_symmetry_cell_setting            triclinic
loop_
_symmetry_equiv_pos_as_xyz
'x, y, z'
_cell_length_a     47.098
_cell_length_b     47.098
_cell_length_c     46.888
_cell_angle_alpha  90.000
_cell_angle_beta   90.000
_cell_angle_gamma  90.000
loop_
_atom_site_label
_atom_site_type_symbol
_atom_site_fract_x
_atom_site_fract_y
_atom_site_fract_z
_atom_type_partial_charge
U0 U 0.90546 0.50000 0.65159 0.00000
U1 U 0.82973 0.50000 0.62043 0.00000
U2 U 0.84072 0.50000 0.70189 0.00000
C3 C 0.88327 0.44945 0.61693 0.00000
C4 C 0.81093 0.44945 0.65706 0.00000
C5 C 0.88170 0.44945 0.69992 0.00000
C6 C 0.88327 0.55055 0.61693 0.00000
C7 C 0.81093 0.55055 0.65706 0.00000
C8 C 0.88170 0.55055 0.69992 0.00000
C9 C 0.81055 0.50000 0.56381 0.00000
C10 C 0.80149 0.50000 0.74687 0.00000
C11 C 0.96386 0.50000 0.66322 0.00000
O12 O 0.81711 0.47676 0.57573 0.00000
O13 O 0.80850 0.47676 0.73520 0.00000
O14 O 0.95029 0.47676 0.66296 0.00000
O15 O 0.90026 0.44993 0.63721 0.00000
O16 O 0.87111 0.47219 0.60798 0.00000
O17 O 0.81993 0.44993 0.63214 0.00000
O18 O 0.80930 0.47219 0.67211 0.00000
O19 O 0.85572 0.44993 0.70455 0.00000
O20 O 0.89549 0.47219 0.69381 0.00000
O21 O 0.90026 0.55007 0.63721 0.00000
O22 O 0.87111 0.52781 0.60798 0.00000
O23 O 0.81993 0.55007 0.63214 0.00000
O24 O 0.80930 0.52781 0.67211 0.00000
O25 O 0.85572 0.55007 0.70455 0.00000
O26 O 0.89549 0.52781 0.69381 0.00000
O27 O 0.81711 0.52324 0.57573 0.00000
O28 O 0.80850 0.52324 0.73520 0.00000
O29 O 0.95029 0.52324 0.66296 0.00000
O30 O 0.85864 0.50000 0.65797 0.00000
U31 U 0.50000 0.09454 0.34841 0.00000
U32 U 0.50000 0.17027 0.37958 0.00000
U33 U 0.50000 0.15927 0.29812 0.00000
C34 C 0.55055 0.11673 0.38307 0.00000
C35 C 0.55055 0.18906 0.34294 0.00000
C36 C 0.55055 0.11830 0.30008 0.00000
C37 C 0.44945 0.11673 0.38307 0.00000
C38 C 0.44945 0.18906 0.34294 0.00000
C39 C 0.44945 0.11830 0.30008 0.00000
C40 C 0.50000 0.18944 0.43619 0.00000
C41 C 0.50000 0.19850 0.25313 0.00000
C42 C 0.50000 0.03614 0.33678 0.00000
O43 O 0.52324 0.18288 0.42427 0.00000
O44 O 0.52324 0.19150 0.26480 0.00000
O45 O 0.52324 0.04970 0.33704 0.00000
O46 O 0.55007 0.09974 0.36279 0.00000
O47 O 0.52781 0.12889 0.39202 0.00000
O48 O 0.55007 0.18006 0.36786 0.00000
O49 O 0.52781 0.19069 0.32789 0.00000
O50 O 0.55007 0.14428 0.29545 0.00000
O51 O 0.52781 0.10450 0.30619 0.00000
O52 O 0.44993 0.09974 0.36279 0.00000
O53 O 0.47219 0.12889 0.39202 0.00000
O54 O 0.44993 0.18006 0.36786 0.00000
O55 O 0.47219 0.19069 0.32789 0.00000
O56 O 0.44993 0.14428 0.29545 0.00000
O57 O 0.47219 0.10450 0.30619 0.00000
O58 O 0.47676 0.18288 0.42427 0.00000
O59 O 0.47676 0.19150 0.26480 0.00000
O60 O 0.47676 0.04970 0.33704 0.00000
O61 O 0.50000 0.14136 0.34204 0.00000
U62 U 0.90546 0.50000 0.34841 0.00000
U63 U 0.82973 0.50000 0.37957 0.00000
U64 U 0.84072 0.50000 0.29811 0.00000
C65 C 0.88327 0.55055 0.38307 0.00000
C66 C 0.81093 0.55055 0.34294 0.00000
C67 C 0.88170 0.55055 0.30008 0.00000
C68 C 0.88327 0.44945 0.38307 0.00000
C69 C 0.81093 0.44945 0.34294 0.00000
C70 C 0.88170 0.44945 0.30008 0.00000
C71 C 0.81055 0.50000 0.43619 0.00000
C72 C 0.80149 0.50000 0.25313 0.00000
C73 C 0.96386 0.50000 0.33678 0.00000
O74 O 0.81711 0.52324 0.42427 0.00000
O75 O 0.80850 0.52324 0.26480 0.00000
O76 O 0.95029 0.52324 0.33704 0.00000
O77 O 0.90026 0.55007 0.36279 0.00000
O78 O 0.87111 0.52781 0.39202 0.00000
O79 O 0.81993 0.55007 0.36786 0.00000
O80 O 0.80930 0.52781 0.32789 0.00000
O81 O 0.85572 0.55007 0.29545 0.00000
O82 O 0.89549 0.52781 0.30619 0.00000
O83 O 0.90026 0.44993 0.36279 0.00000
O84 O 0.87111 0.47219 0.39202 0.00000
O85 O 0.81993 0.44993 0.36786 0.00000
O86 O 0.80930 0.47219 0.32789 0.00000
O87 O 0.85572 0.44993 0.29545 0.00000
O88 O 0.89549 0.47219 0.30619 0.00000
O89 O 0.81711 0.47676 0.42427 0.00000
O90 O 0.80850 0.47676 0.26480 0.00000
O91 O 0.95029 0.47676 0.33704 0.00000
O92 O 0.85864 0.50000 0.34203 0.00000
U93 U 0.50000 0.90546 0.34841 0.00000
U94 U 0.50000 0.82973 0.37958 0.00000
U95 U 0.50000 0.84073 0.29812 0.00000
C96 C 0.44945 0.88327 0.38307 0.00000
C97 C 0.44945 0.81094 0.34294 0.00000
C98 C 0.44945 0.88170 0.30008 0.00000
C99 C 0.55055 0.88327 0.38307 0.00000
C100 C 0.55055 0.81094 0.34294 0.00000
C101 C 0.55055 0.88170 0.30008 0.00000
C102 C 0.50000 0.81056 0.43619 0.00000
C103 C 0.50000 0.80150 0.25313 0.00000
C104 C 0.50000 0.96386 0.33678 0.00000
O105 O 0.47676 0.81712 0.42427 0.00000
O106 O 0.47676 0.80850 0.26480 0.00000
O107 O 0.47676 0.95030 0.33704 0.00000
O108 O 0.44993 0.90026 0.36279 0.00000
O109 O 0.47219 0.87111 0.39202 0.00000
O110 O 0.44993 0.81994 0.36786 0.00000
O111 O 0.47219 0.80931 0.32789 0.00000
O112 O 0.44993 0.85572 0.29545 0.00000
O113 O 0.47219 0.89550 0.30619 0.00000
O114 O 0.55007 0.90026 0.36279 0.00000
O115 O 0.52781 0.87111 0.39202 0.00000
O116 O 0.55007 0.81994 0.36786 0.00000
O117 O 0.52781 0.80931 0.32789 0.00000
O118 O 0.55007 0.85572 0.29545 0.00000
O119 O 0.52781 0.89550 0.30619 0.00000
O120 O 0.52324 0.81712 0.42427 0.00000
O121 O 0.52324 0.80850 0.26480 0.00000
O122 O 0.52324 0.95030 0.33704 0.00000
O123 O 0.50000 0.85864 0.34204 0.00000
U124 U 0.09454 0.50000 0.34841 0.00000
U125 U 0.17027 0.50000 0.37957 0.00000
U126 U 0.15928 0.50000 0.29811 0.00000
C127 C 0.11673 0.44945 0.38307 0.00000
C128 C 0.18907 0.44945 0.34294 0.00000
C129 C 0.11830 0.44945 0.30008 0.00000
C130 C 0.11673 0.55055 0.38307 0.00000
C131 C 0.18907 0.55055 0.34294 0.00000
C132 C 0.11830 0.55055 0.30008 0.00000
C133 C 0.18945 0.50000 0.43619 0.00000
C134 C 0.19851 0.50000 0.25313 0.00000
C135 C 0.03614 0.50000 0.33678 0.00000
O136 O 0.18289 0.47676 0.42427 0.00000
O137 O 0.19150 0.47676 0.26480 0.00000
O138 O 0.04971 0.47676 0.33704 0.00000
O139 O 0.09974 0.44993 0.36279 0.00000
O140 O 0.12889 0.47219 0.39202 0.00000
O141 O 0.18007 0.44993 0.36786 0.00000
O142 O 0.19070 0.47219 0.32789 0.00000
O143 O 0.14428 0.44993 0.29545 0.00000
O144 O 0.10451 0.47219 0.30619 0.00000
O145 O 0.09974 0.55007 0.36279 0.00000
O146 O 0.12889 0.52781 0.39202 0.00000
O147 O 0.18007 0.55007 0.36786 0.00000
O148 O 0.19070 0.52781 0.32789 0.00000
O149 O 0.14428 0.55007 0.29545 0.00000
O150 O 0.10451 0.52781 0.30619 0.00000
O151 O 0.18289 0.52324 0.42427 0.00000
O152 O 0.19150 0.52324 0.26480 0.00000
O153 O 0.04971 0.52324 0.33704 0.00000
O154 O 0.14136 0.50000 0.34203 0.00000
U155 U 0.65029 0.50000 0.90526 0.00000
U156 U 0.61920 0.50000 0.82922 0.00000
U157 U 0.70030 0.50000 0.84019 0.00000
C158 C 0.61576 0.55055 0.88301 0.00000
C159 C 0.65565 0.55055 0.81031 0.00000
C160 C 0.69838 0.55055 0.88135 0.00000
C161 C 0.61576 0.44945 0.88301 0.00000
C162 C 0.65565 0.44945 0.81031 0.00000
C163 C 0.69838 0.44945 0.88135 0.00000
C164 C 0.56281 0.50000 0.81001 0.00000
C165 C 0.74505 0.50000 0.80075 0.00000
C166 C 0.66192 0.50000 0.96391 0.00000
O167 O 0.57469 0.52324 0.81659 0.00000
O168 O 0.73344 0.52324 0.80779 0.00000
O169 O 0.66165 0.52324 0.95029 0.00000
O170 O 0.63597 0.55007 0.90005 0.00000
O171 O 0.60684 0.52781 0.87080 0.00000
O172 O 0.63085 0.55007 0.81937 0.00000
O173 O 0.67063 0.52781 0.80866 0.00000
O174 O 0.70297 0.55007 0.85525 0.00000
O175 O 0.69231 0.52781 0.89521 0.00000
O176 O 0.63597 0.44993 0.90005 0.00000
O177 O 0.60684 0.47219 0.87080 0.00000
O178 O 0.63085 0.44993 0.81937 0.00000
O179 O 0.67063 0.47219 0.80866 0.00000
O180 O 0.70297 0.44993 0.85525 0.00000
O181 O 0.69231 0.47219 0.89521 0.00000
O182 O 0.57469 0.47676 0.81659 0.00000
O183 O 0.73344 0.47676 0.80779 0.00000
O184 O 0.66165 0.47676 0.95029 0.00000
O185 O 0.65659 0.50000 0.85822 0.00000
U186 U 0.65029 0.50000 0.09474 0.00000
U187 U 0.61920 0.50000 0.17078 0.00000
U188 U 0.70030 0.50000 0.15981 0.00000
C189 C 0.61576 0.44945 0.11699 0.00000
C190 C 0.65565 0.44945 0.18969 0.00000
C191 C 0.69838 0.44945 0.11865 0.00000
C192 C 0.61576 0.55055 0.11699 0.00000
C193 C 0.65565 0.55055 0.18969 0.00000
C194 C 0.69838 0.55055 0.11865 0.00000
C195 C 0.56281 0.50000 0.18999 0.00000
C196 C 0.74505 0.50000 0.19925 0.00000
C197 C 0.66192 0.50000 0.03609 0.00000
O198 O 0.57469 0.47676 0.18341 0.00000
O199 O 0.73344 0.47676 0.19221 0.00000
O200 O 0.66165 0.47676 0.04971 0.00000
O201 O 0.63597 0.44993 0.09995 0.00000
O202 O 0.60684 0.47219 0.12920 0.00000
O203 O 0.63085 0.44993 0.18063 0.00000
O204 O 0.67063 0.47219 0.19134 0.00000
O205 O 0.70297 0.44993 0.14475 0.00000
O206 O 0.69231 0.47219 0.10478 0.00000
O207 O 0.63597 0.55007 0.09995 0.00000
O208 O 0.60684 0.52781 0.12920 0.00000
O209 O 0.63085 0.55007 0.18063 0.00000
O210 O 0.67063 0.52781 0.19134 0.00000
O211 O 0.70297 0.55007 0.14475 0.00000
O212 O 0.69231 0.52781 0.10478 0.00000
O213 O 0.57469 0.52324 0.18341 0.00000
O214 O 0.73344 0.52324 0.19221 0.00000
O215 O 0.66165 0.52324 0.04971 0.00000
O216 O 0.65659 0.50000 0.14177 0.00000
U217 U 0.50000 0.90546 0.65159 0.00000
U218 U 0.50000 0.82973 0.62042 0.00000
U219 U 0.50000 0.84073 0.70188 0.00000
C220 C 0.55055 0.88327 0.61693 0.00000
C221 C 0.55055 0.81094 0.65706 0.00000
C222 C 0.55055 0.88170 0.69992 0.00000
C223 C 0.44945 0.88327 0.61693 0.00000
C224 C 0.44945 0.81094 0.65706 0.00000
C225 C 0.44945 0.88170 0.69992 0.00000
C226 C 0.50000 0.81056 0.56381 0.00000
C227 C 0.50000 0.80150 0.74687 0.00000
C228 C 0.50000 0.96386 0.66322 0.00000
O229 O 0.52324 0.81712 0.57573 0.00000
O230 O 0.52324 0.80850 0.73520 0.00000
O231 O 0.52324 0.95030 0.66296 0.00000
O232 O 0.55007 0.90026 0.63721 0.00000
O233 O 0.52781 0.87111 0.60798 0.00000
O234 O 0.55007 0.81993 0.63214 0.00000
O235 O 0.52781 0.80931 0.67211 0.00000
O236 O 0.55007 0.85572 0.70455 0.00000
O237 O 0.52781 0.89550 0.69381 0.00000
O238 O 0.44993 0.90026 0.63721 0.00000
O239 O 0.47219 0.87111 0.60798 0.00000
O240 O 0.44993 0.81993 0.63214 0.00000
O241 O 0.47219 0.80931 0.67211 0.00000
O242 O 0.44993 0.85572 0.70455 0.00000
O243 O 0.47219 0.89550 0.69381 0.00000
O244 O 0.47676 0.81712 0.57573 0.00000
O245 O 0.47676 0.80850 0.73520 0.00000
O246 O 0.47676 0.95030 0.66296 0.00000
O247 O 0.50000 0.85864 0.65796 0.00000
U248 U 0.30334 0.83780 0.50000 0.00000
U249 U 0.35346 0.90249 0.50000 0.00000
U250 U 0.38443 0.82674 0.50000 0.00000
C251 C 0.30533 0.87877 0.44922 0.00000
C252 C 0.38795 0.88028 0.44922 0.00000
C253 C 0.34795 0.80798 0.44922 0.00000
C254 C 0.30533 0.87877 0.55078 0.00000
C255 C 0.38795 0.88028 0.55078 0.00000
C256 C 0.34795 0.80798 0.55078 0.00000
C257 C 0.34192 0.96091 0.50000 0.00000
C258 C 0.44079 0.80753 0.50000 0.00000
C259 C 0.25853 0.79860 0.50000 0.00000
O260 O 0.34217 0.94734 0.47666 0.00000
O261 O 0.42891 0.81410 0.47666 0.00000
O262 O 0.27015 0.80560 0.47666 0.00000
O263 O 0.30070 0.85279 0.44970 0.00000
O264 O 0.31142 0.89256 0.47207 0.00000
O265 O 0.36777 0.89728 0.44970 0.00000
O266 O 0.39685 0.86812 0.47207 0.00000
O267 O 0.37276 0.81696 0.44970 0.00000
O268 O 0.33297 0.80636 0.47207 0.00000
O269 O 0.30070 0.85279 0.55030 0.00000
O270 O 0.31142 0.89256 0.52793 0.00000
O271 O 0.36777 0.89728 0.55030 0.00000
O272 O 0.39685 0.86812 0.52793 0.00000
O273 O 0.37276 0.81696 0.55030 0.00000
O274 O 0.33297 0.80636 0.52793 0.00000
O275 O 0.34217 0.94734 0.52334 0.00000
O276 O 0.42891 0.81410 0.52334 0.00000
O277 O 0.27015 0.80560 0.52334 0.00000
O278 O 0.34708 0.85568 0.50000 0.00000
U279 U 0.16220 0.69666 0.50000 0.00000
U280 U 0.09750 0.64654 0.50000 0.00000
U281 U 0.17325 0.61557 0.50000 0.00000
C282 C 0.12122 0.69467 0.55078 0.00000
C283 C 0.11971 0.61205 0.55078 0.00000
C284 C 0.19202 0.65205 0.55078 0.00000
C285 C 0.12122 0.69467 0.44922 0.00000
C286 C 0.11971 0.61205 0.44922 0.00000
C287 C 0.19202 0.65205 0.44922 0.00000
C288 C 0.03909 0.65808 0.50000 0.00000
C289 C 0.19247 0.55921 0.50000 0.00000
C290 C 0.20140 0.74147 0.50000 0.00000
O291 O 0.05266 0.65783 0.52335 0.00000
O292 O 0.18590 0.57109 0.52335 0.00000
O293 O 0.19440 0.72985 0.52335 0.00000
O294 O 0.14720 0.69930 0.55030 0.00000
O295 O 0.10743 0.68858 0.52793 0.00000
O296 O 0.10271 0.63223 0.55030 0.00000
O297 O 0.13188 0.60315 0.52793 0.00000
O298 O 0.18304 0.62724 0.55030 0.00000
O299 O 0.19364 0.66704 0.52793 0.00000
O300 O 0.14720 0.69930 0.44970 0.00000
O301 O 0.10743 0.68858 0.47207 0.00000
O302 O 0.10271 0.63223 0.44970 0.00000
O303 O 0.13188 0.60315 0.47207 0.00000
O304 O 0.18304 0.62724 0.44970 0.00000
O305 O 0.19364 0.66704 0.47207 0.00000
O306 O 0.05266 0.65783 0.47666 0.00000
O307 O 0.18590 0.57109 0.47666 0.00000
O308 O 0.19440 0.72985 0.47666 0.00000
O309 O 0.14432 0.65292 0.50000 0.00000
U310 U 0.69666 0.16220 0.50000 0.00000
U311 U 0.64654 0.09751 0.50000 0.00000
U312 U 0.61557 0.17326 0.50000 0.00000
C313 C 0.69467 0.12123 0.44922 0.00000
C314 C 0.61205 0.11972 0.44922 0.00000
C315 C 0.65205 0.19202 0.44922 0.00000
C316 C 0.69467 0.12123 0.55078 0.00000
C317 C 0.61205 0.11972 0.55078 0.00000
C318 C 0.65205 0.19202 0.55078 0.00000
C319 C 0.65808 0.03910 0.50000 0.00000
C320 C 0.55921 0.19247 0.50000 0.00000
C321 C 0.74147 0.20140 0.50000 0.00000
O322 O 0.65783 0.05266 0.47666 0.00000
O323 O 0.57109 0.18590 0.47666 0.00000
O324 O 0.72985 0.19440 0.47666 0.00000
O325 O 0.69930 0.14721 0.44970 0.00000
O326 O 0.68858 0.10744 0.47207 0.00000
O327 O 0.63223 0.10272 0.44970 0.00000
O328 O 0.60315 0.13188 0.47207 0.00000
O329 O 0.62724 0.18304 0.44970 0.00000
O330 O 0.66703 0.19364 0.47207 0.00000
O331 O 0.69930 0.14721 0.55030 0.00000
O332 O 0.68858 0.10744 0.52793 0.00000
O333 O 0.63223 0.10272 0.55030 0.00000
O334 O 0.60315 0.13188 0.52793 0.00000
O335 O 0.62724 0.18304 0.55030 0.00000
O336 O 0.66703 0.19364 0.52793 0.00000
O337 O 0.65783 0.05266 0.52334 0.00000
O338 O 0.57109 0.18590 0.52334 0.00000
O339 O 0.72985 0.19440 0.52334 0.00000
O340 O 0.65292 0.14432 0.50000 0.00000
U341 U 0.83780 0.69666 0.50000 0.00000
U342 U 0.90250 0.64654 0.50000 0.00000
U343 U 0.82675 0.61557 0.50000 0.00000
C344 C 0.87878 0.69467 0.44922 0.00000
C345 C 0.88029 0.61205 0.44922 0.00000
C346 C 0.80798 0.65205 0.44922 0.00000
C347 C 0.87878 0.69467 0.55078 0.00000
C348 C 0.88029 0.61205 0.55078 0.00000
C349 C 0.80798 0.65205 0.55078 0.00000
C350 C 0.96091 0.65808 0.50000 0.00000
C351 C 0.80753 0.55921 0.50000 0.00000
C352 C 0.79860 0.74147 0.50000 0.00000
O353 O 0.94734 0.65783 0.47666 0.00000
O354 O 0.81410 0.57109 0.47666 0.00000
O355 O 0.80560 0.72985 0.47666 0.00000
O356 O 0.85280 0.69930 0.44970 0.00000
O357 O 0.89257 0.68858 0.47207 0.00000
O358 O 0.89729 0.63223 0.44970 0.00000
O359 O 0.86812 0.60315 0.47207 0.00000
O360 O 0.81696 0.62724 0.44970 0.00000
O361 O 0.80636 0.66704 0.47207 0.00000
O362 O 0.85280 0.69930 0.55030 0.00000
O363 O 0.89257 0.68858 0.52793 0.00000
O364 O 0.89729 0.63223 0.55030 0.00000
O365 O 0.86812 0.60315 0.52793 0.00000
O366 O 0.81696 0.62724 0.55030 0.00000
O367 O 0.80636 0.66703 0.52793 0.00000
O368 O 0.94734 0.65783 0.52334 0.00000
O369 O 0.81410 0.57109 0.52334 0.00000
O370 O 0.80560 0.72985 0.52334 0.00000
O371 O 0.85568 0.65292 0.50000 0.00000
U372 U 0.16220 0.30334 0.50000 0.00000
U373 U 0.09750 0.35346 0.50000 0.00000
U374 U 0.17325 0.38443 0.50000 0.00000
C375 C 0.12123 0.30533 0.44922 0.00000
C376 C 0.11971 0.38795 0.44922 0.00000
C377 C 0.19202 0.34795 0.44922 0.00000
C378 C 0.12123 0.30533 0.55078 0.00000
C379 C 0.11971 0.38795 0.55078 0.00000
C380 C 0.19202 0.34795 0.55078 0.00000
C381 C 0.03909 0.34192 0.50000 0.00000
C382 C 0.19247 0.44079 0.50000 0.00000
C383 C 0.20140 0.25853 0.50000 0.00000
O384 O 0.05266 0.34217 0.47666 0.00000
O385 O 0.18590 0.42891 0.47665 0.00000
O386 O 0.19440 0.27015 0.47666 0.00000
O387 O 0.14720 0.30070 0.44970 0.00000
O388 O 0.10743 0.31142 0.47207 0.00000
O389 O 0.10271 0.36777 0.44970 0.00000
O390 O 0.13188 0.39685 0.47207 0.00000
O391 O 0.18304 0.37276 0.44970 0.00000
O392 O 0.19364 0.33296 0.47207 0.00000
O393 O 0.14720 0.30070 0.55030 0.00000
O394 O 0.10743 0.31142 0.52793 0.00000
O395 O 0.10271 0.36777 0.55030 0.00000
O396 O 0.13188 0.39685 0.52793 0.00000
O397 O 0.18304 0.37276 0.55030 0.00000
O398 O 0.19364 0.33296 0.52793 0.00000
O399 O 0.05266 0.34217 0.52334 0.00000
O400 O 0.18590 0.42891 0.52334 0.00000
O401 O 0.19440 0.27015 0.52334 0.00000
O402 O 0.14432 0.34708 0.50000 0.00000
U403 U 0.30334 0.16220 0.50000 0.00000
U404 U 0.35346 0.09751 0.50000 0.00000
U405 U 0.38443 0.17326 0.50000 0.00000
C406 C 0.30533 0.12123 0.55078 0.00000
C407 C 0.38795 0.11972 0.55078 0.00000
C408 C 0.34795 0.19202 0.55078 0.00000
C409 C 0.30533 0.12123 0.44922 0.00000
C410 C 0.38795 0.11972 0.44922 0.00000
C411 C 0.34795 0.19202 0.44922 0.00000
C412 C 0.34192 0.03910 0.50000 0.00000
C413 C 0.44079 0.19247 0.50000 0.00000
C414 C 0.25853 0.20140 0.50000 0.00000
O415 O 0.34217 0.05266 0.52334 0.00000
O416 O 0.42891 0.18590 0.52334 0.00000
O417 O 0.27015 0.19440 0.52334 0.00000
O418 O 0.30070 0.14721 0.55030 0.00000
O419 O 0.31142 0.10744 0.52793 0.00000
O420 O 0.36777 0.10272 0.55030 0.00000
O421 O 0.39685 0.13189 0.52793 0.00000
O422 O 0.37276 0.18304 0.55030 0.00000
O423 O 0.33296 0.19364 0.52793 0.00000
O424 O 0.30070 0.14721 0.44970 0.00000
O425 O 0.31142 0.10744 0.47207 0.00000
O426 O 0.36777 0.10272 0.44970 0.00000
O427 O 0.39685 0.13189 0.47207 0.00000
O428 O 0.37276 0.18304 0.44970 0.00000
O429 O 0.33296 0.19364 0.47207 0.00000
O430 O 0.34217 0.05266 0.47666 0.00000
O431 O 0.42891 0.18590 0.47666 0.00000
O432 O 0.27015 0.19440 0.47665 0.00000
O433 O 0.34708 0.14432 0.50000 0.00000
U434 U 0.83780 0.30334 0.50000 0.00000
U435 U 0.90250 0.35346 0.50000 0.00000
U436 U 0.82675 0.38443 0.50000 0.00000
C437 C 0.87877 0.30533 0.55078 0.00000
C438 C 0.88029 0.38795 0.55078 0.00000
C439 C 0.80798 0.34795 0.55078 0.00000
C440 C 0.87877 0.30533 0.44922 0.00000
C441 C 0.88029 0.38795 0.44922 0.00000
C442 C 0.80798 0.34795 0.44922 0.00000
C443 C 0.96091 0.34192 0.50000 0.00000
C444 C 0.80753 0.44079 0.50000 0.00000
C445 C 0.79860 0.25853 0.50000 0.00000
O446 O 0.94734 0.34217 0.52335 0.00000
O447 O 0.81410 0.42891 0.52335 0.00000
O448 O 0.80560 0.27015 0.52335 0.00000
O449 O 0.85280 0.30070 0.55030 0.00000
O450 O 0.89257 0.31142 0.52793 0.00000
O451 O 0.89729 0.36777 0.55030 0.00000
O452 O 0.86812 0.39685 0.52793 0.00000
O453 O 0.81696 0.37276 0.55030 0.00000
O454 O 0.80636 0.33296 0.52793 0.00000
O455 O 0.85280 0.30070 0.44970 0.00000
O456 O 0.89257 0.31142 0.47207 0.00000
O457 O 0.89729 0.36777 0.44970 0.00000
O458 O 0.86812 0.39685 0.47207 0.00000
O459 O 0.81696 0.37276 0.44970 0.00000
O460 O 0.80636 0.33296 0.47207 0.00000
O461 O 0.94734 0.34217 0.47666 0.00000
O462 O 0.81410 0.42891 0.47666 0.00000
O463 O 0.80560 0.27015 0.47666 0.00000
O464 O 0.85568 0.34708 0.50000 0.00000
U465 U 0.50000 0.65029 0.90527 0.00000
U466 U 0.50000 0.61919 0.82923 0.00000
U467 U 0.50000 0.70030 0.84020 0.00000
C468 C 0.44945 0.61576 0.88301 0.00000
C469 C 0.44945 0.65564 0.81032 0.00000
C470 C 0.44945 0.69838 0.88136 0.00000
C471 C 0.55055 0.61576 0.88301 0.00000
C472 C 0.55055 0.65564 0.81032 0.00000
C473 C 0.55055 0.69838 0.88136 0.00000
C474 C 0.50000 0.56281 0.81002 0.00000
C475 C 0.50000 0.74505 0.80075 0.00000
C476 C 0.50000 0.66192 0.96392 0.00000
O477 O 0.47676 0.57469 0.81660 0.00000
O478 O 0.47676 0.73344 0.80780 0.00000
O479 O 0.47676 0.66165 0.95030 0.00000
O480 O 0.44993 0.63597 0.90006 0.00000
O481 O 0.47219 0.60684 0.87080 0.00000
O482 O 0.44993 0.63084 0.81938 0.00000
O483 O 0.47219 0.67063 0.80866 0.00000
O484 O 0.44993 0.70297 0.85526 0.00000
O485 O 0.47219 0.69231 0.89522 0.00000
O486 O 0.55007 0.63597 0.90006 0.00000
O487 O 0.52781 0.60684 0.87080 0.00000
O488 O 0.55007 0.63084 0.81938 0.00000
O489 O 0.52781 0.67063 0.80866 0.00000
O490 O 0.55007 0.70297 0.85526 0.00000
O491 O 0.52781 0.69231 0.89522 0.00000
O492 O 0.52324 0.57469 0.81660 0.00000
O493 O 0.52324 0.73344 0.80780 0.00000
O494 O 0.52324 0.66165 0.95030 0.00000
O495 O 0.50000 0.65659 0.85823 0.00000
U496 U 0.50000 0.65029 0.09473 0.00000
U497 U 0.50000 0.61919 0.17077 0.00000
U498 U 0.50000 0.70030 0.15980 0.00000
C499 C 0.55055 0.61576 0.11699 0.00000
C500 C 0.55055 0.65564 0.18968 0.00000
C501 C 0.55055 0.69838 0.11864 0.00000
C502 C 0.44945 0.61576 0.11699 0.00000
C503 C 0.44945 0.65564 0.18968 0.00000
C504 C 0.44945 0.69838 0.11864 0.00000
C505 C 0.50000 0.56281 0.18998 0.00000
C506 C 0.50000 0.74505 0.19925 0.00000
C507 C 0.50000 0.66192 0.03608 0.00000
O508 O 0.52324 0.57469 0.18340 0.00000
O509 O 0.52324 0.73344 0.19220 0.00000
O510 O 0.52324 0.66165 0.04970 0.00000
O511 O 0.55007 0.63597 0.09994 0.00000
O512 O 0.52781 0.60684 0.12920 0.00000
O513 O 0.55007 0.63084 0.18062 0.00000
O514 O 0.52781 0.67063 0.19134 0.00000
O515 O 0.55007 0.70297 0.14474 0.00000
O516 O 0.52781 0.69231 0.10478 0.00000
O517 O 0.44993 0.63597 0.09994 0.00000
O518 O 0.47219 0.60684 0.12920 0.00000
O519 O 0.44993 0.63084 0.18062 0.00000
O520 O 0.47219 0.67063 0.19134 0.00000
O521 O 0.44993 0.70297 0.14474 0.00000
O522 O 0.47219 0.69231 0.10478 0.00000
O523 O 0.47676 0.57469 0.18340 0.00000
O524 O 0.47676 0.73344 0.19220 0.00000
O525 O 0.47676 0.66165 0.04970 0.00000
O526 O 0.50000 0.65659 0.14177 0.00000
U527 U 0.34971 0.50000 0.09474 0.00000
U528 U 0.38080 0.50000 0.17078 0.00000
U529 U 0.29970 0.50000 0.15981 0.00000
C530 C 0.38424 0.55055 0.11699 0.00000
C531 C 0.34435 0.55055 0.18969 0.00000
C532 C 0.30162 0.55055 0.11865 0.00000
C533 C 0.38424 0.44945 0.11699 0.00000
C534 C 0.34435 0.44945 0.18969 0.00000
C535 C 0.30162 0.44945 0.11865 0.00000
C536 C 0.43719 0.50000 0.18999 0.00000
C537 C 0.25495 0.50000 0.19925 0.00000
C538 C 0.33808 0.50000 0.03609 0.00000
O539 O 0.42531 0.52324 0.18341 0.00000
O540 O 0.26656 0.52324 0.19221 0.00000
O541 O 0.33835 0.52324 0.04971 0.00000
O542 O 0.36403 0.55007 0.09995 0.00000
O543 O 0.39316 0.52781 0.12920 0.00000
O544 O 0.36915 0.55007 0.18063 0.00000
O545 O 0.32937 0.52781 0.19134 0.00000
O546 O 0.29703 0.55007 0.14475 0.00000
O547 O 0.30769 0.52781 0.10478 0.00000
O548 O 0.36403 0.44993 0.09995 0.00000
O549 O 0.39316 0.47219 0.12920 0.00000
O550 O 0.36915 0.44993 0.18063 0.00000
O551 O 0.32937 0.47219 0.19134 0.00000
O552 O 0.29703 0.44993 0.14475 0.00000
O553 O 0.30769 0.47219 0.10478 0.00000
O554 O 0.42531 0.47676 0.18341 0.00000
O555 O 0.26656 0.47676 0.19221 0.00000
O556 O 0.33835 0.47676 0.04971 0.00000
O557 O 0.34341 0.50000 0.14177 0.00000
U558 U 0.50000 0.34971 0.09473 0.00000
U559 U 0.50000 0.38081 0.17077 0.00000
U560 U 0.50000 0.29970 0.15980 0.00000
C561 C 0.44945 0.38424 0.11699 0.00000
C562 C 0.44945 0.34436 0.18968 0.00000
C563 C 0.44945 0.30162 0.11864 0.00000
C564 C 0.55055 0.38424 0.11699 0.00000
C565 C 0.55055 0.34436 0.18968 0.00000
C566 C 0.55055 0.30162 0.11864 0.00000
C567 C 0.50000 0.43719 0.18998 0.00000
C568 C 0.50000 0.25495 0.19925 0.00000
C569 C 0.50000 0.33808 0.03608 0.00000
O570 O 0.47676 0.42531 0.18340 0.00000
O571 O 0.47676 0.26656 0.19220 0.00000
O572 O 0.47676 0.33835 0.04970 0.00000
O573 O 0.44993 0.36403 0.09994 0.00000
O574 O 0.47219 0.39316 0.12920 0.00000
O575 O 0.44993 0.36916 0.18062 0.00000
O576 O 0.47219 0.32937 0.19134 0.00000
O577 O 0.44993 0.29703 0.14474 0.00000
O578 O 0.47219 0.30769 0.10478 0.00000
O579 O 0.55007 0.36403 0.09994 0.00000
O580 O 0.52781 0.39316 0.12920 0.00000
O581 O 0.55007 0.36916 0.18062 0.00000
O582 O 0.52781 0.32937 0.19134 0.00000
O583 O 0.55007 0.29703 0.14474 0.00000
O584 O 0.52781 0.30769 0.10478 0.00000
O585 O 0.52324 0.42531 0.18340 0.00000
O586 O 0.52324 0.26656 0.19220 0.00000
O587 O 0.52324 0.33835 0.04970 0.00000
O588 O 0.50000 0.34341 0.14177 0.00000
U589 U 0.34971 0.50000 0.90526 0.00000
U590 U 0.38080 0.50000 0.82922 0.00000
U591 U 0.29970 0.50000 0.84019 0.00000
C592 C 0.38424 0.44945 0.88301 0.00000
C593 C 0.34435 0.44945 0.81031 0.00000
C594 C 0.30162 0.44945 0.88135 0.00000
C595 C 0.38424 0.55055 0.88301 0.00000
C596 C 0.34435 0.55055 0.81031 0.00000
C597 C 0.30162 0.55055 0.88135 0.00000
C598 C 0.43719 0.50000 0.81001 0.00000
C599 C 0.25495 0.50000 0.80075 0.00000
C600 C 0.33808 0.50000 0.96391 0.00000
O601 O 0.42531 0.47676 0.81659 0.00000
O602 O 0.26656 0.47676 0.80779 0.00000
O603 O 0.33835 0.47676 0.95029 0.00000
O604 O 0.36403 0.44993 0.90005 0.00000
O605 O 0.39316 0.47219 0.87080 0.00000
O606 O 0.36915 0.44993 0.81937 0.00000
O607 O 0.32937 0.47219 0.80866 0.00000
O608 O 0.29703 0.44993 0.85525 0.00000
O609 O 0.30769 0.47219 0.89522 0.00000
O610 O 0.36403 0.55007 0.90005 0.00000
O611 O 0.39316 0.52781 0.87080 0.00000
O612 O 0.36915 0.55007 0.81937 0.00000
O613 O 0.32937 0.52781 0.80866 0.00000
O614 O 0.29703 0.55007 0.85525 0.00000
O615 O 0.30769 0.52781 0.89522 0.00000
O616 O 0.42531 0.52324 0.81659 0.00000
O617 O 0.26656 0.52324 0.80779 0.00000
O618 O 0.33835 0.52324 0.95029 0.00000
O619 O 0.34341 0.50000 0.85823 0.00000
U620 U 0.50000 0.34971 0.90527 0.00000
U621 U 0.50000 0.38081 0.82923 0.00000
U622 U 0.50000 0.29970 0.84020 0.00000
C623 C 0.55055 0.38424 0.88301 0.00000
C624 C 0.55055 0.34436 0.81032 0.00000
C625 C 0.55055 0.30162 0.88136 0.00000
C626 C 0.44945 0.38424 0.88301 0.00000
C627 C 0.44945 0.34436 0.81032 0.00000
C628 C 0.44945 0.30162 0.88136 0.00000
C629 C 0.50000 0.43719 0.81002 0.00000
C630 C 0.50000 0.25495 0.80075 0.00000
C631 C 0.50000 0.33808 0.96392 0.00000
O632 O 0.52324 0.42531 0.81660 0.00000
O633 O 0.52324 0.26656 0.80780 0.00000
O634 O 0.52324 0.33835 0.95030 0.00000
O635 O 0.55007 0.36403 0.90006 0.00000
O636 O 0.52781 0.39316 0.87080 0.00000
O637 O 0.55007 0.36916 0.81938 0.00000
O638 O 0.52781 0.32937 0.80866 0.00000
O639 O 0.55007 0.29703 0.85526 0.00000
O640 O 0.52781 0.30769 0.89522 0.00000
O641 O 0.44993 0.36403 0.90006 0.00000
O642 O 0.47219 0.39316 0.87080 0.00000
O643 O 0.44993 0.36916 0.81938 0.00000
O644 O 0.47219 0.32937 0.80866 0.00000
O645 O 0.44993 0.29703 0.85526 0.00000
O646 O 0.47219 0.30769 0.89522 0.00000
O647 O 0.47676 0.42531 0.81660 0.00000
O648 O 0.47676 0.26656 0.80780 0.00000
O649 O 0.47676 0.33835 0.95030 0.00000
O650 O 0.50000 0.34341 0.85823 0.00000
U651 U 0.69666 0.83780 0.50000 0.00000
U652 U 0.64654 0.90249 0.50000 0.00000
U653 U 0.61557 0.82674 0.50000 0.00000
C654 C 0.69467 0.87877 0.55078 0.00000
C655 C 0.61205 0.88028 0.55078 0.00000
C656 C 0.65205 0.80798 0.55078 0.00000
C657 C 0.69467 0.87877 0.44922 0.00000
C658 C 0.61205 0.88028 0.44922 0.00000
C659 C 0.65205 0.80798 0.44922 0.00000
C660 C 0.65808 0.96090 0.50000 0.00000
C661 C 0.55921 0.80753 0.50000 0.00000
C662 C 0.74147 0.79860 0.50000 0.00000
O663 O 0.65783 0.94734 0.52335 0.00000
O664 O 0.57109 0.81410 0.52334 0.00000
O665 O 0.72985 0.80560 0.52334 0.00000
O666 O 0.69930 0.85279 0.55030 0.00000
O667 O 0.68858 0.89256 0.52793 0.00000
O668 O 0.63223 0.89728 0.55030 0.00000
O669 O 0.60315 0.86812 0.52793 0.00000
O670 O 0.62724 0.81696 0.55030 0.00000
O671 O 0.66703 0.80636 0.52793 0.00000
O672 O 0.69930 0.85279 0.44970 0.00000
O673 O 0.68858 0.89256 0.47207 0.00000
O674 O 0.63223 0.89728 0.44970 0.00000
O675 O 0.60315 0.86812 0.47207 0.00000
O676 O 0.62724 0.81696 0.44970 0.00000
O677 O 0.66703 0.80636 0.47207 0.00000
O678 O 0.65783 0.94734 0.47666 0.00000
O679 O 0.57109 0.81410 0.47666 0.00000
O680 O 0.72985 0.80560 0.47666 0.00000
O681 O 0.65292 0.85568 0.50000 0.00000
U682 U 0.09454 0.50000 0.65159 0.00000
U683 U 0.17027 0.50000 0.62043 0.00000
U684 U 0.15928 0.50000 0.70189 0.00000
C685 C 0.11673 0.55055 0.61693 0.00000
C686 C 0.18907 0.55055 0.65706 0.00000
C687 C 0.11830 0.55055 0.69992 0.00000
C688 C 0.11673 0.44945 0.61693 0.00000
C689 C 0.18907 0.44945 0.65706 0.00000
C690 C 0.11830 0.44945 0.69992 0.00000
C691 C 0.18945 0.50000 0.56381 0.00000
C692 C 0.19851 0.50000 0.74687 0.00000
C693 C 0.03614 0.50000 0.66322 0.00000
O694 O 0.18289 0.52324 0.57573 0.00000
O695 O 0.19150 0.52324 0.73520 0.00000
O696 O 0.04971 0.52324 0.66296 0.00000
O697 O 0.09974 0.55007 0.63721 0.00000
O698 O 0.12889 0.52781 0.60798 0.00000
O699 O 0.18007 0.55007 0.63214 0.00000
O700 O 0.19070 0.52781 0.67211 0.00000
O701 O 0.14428 0.55007 0.70455 0.00000
O702 O 0.10451 0.52781 0.69381 0.00000
O703 O 0.09974 0.44993 0.63721 0.00000
O704 O 0.12889 0.47219 0.60798 0.00000
O705 O 0.18007 0.44993 0.63214 0.00000
O706 O 0.19070 0.47219 0.67211 0.00000
O707 O 0.14428 0.44993 0.70455 0.00000
O708 O 0.10451 0.47219 0.69381 0.00000
O709 O 0.18289 0.47676 0.57573 0.00000
O710 O 0.19150 0.47676 0.73520 0.00000
O711 O 0.04971 0.47676 0.66296 0.00000
O712 O 0.14136 0.50000 0.65797 0.00000
U713 U 0.50000 0.09454 0.65159 0.00000
U714 U 0.50000 0.17027 0.62042 0.00000
U715 U 0.50000 0.15927 0.70188 0.00000
C716 C 0.44945 0.11673 0.61693 0.00000
C717 C 0.44945 0.18906 0.65706 0.00000
C718 C 0.44945 0.11830 0.69992 0.00000
C719 C 0.55055 0.11673 0.61693 0.00000
C720 C 0.55055 0.18906 0.65706 0.00000
C721 C 0.55055 0.11830 0.69992 0.00000
C722 C 0.50000 0.18944 0.56381 0.00000
C723 C 0.50000 0.19850 0.74687 0.00000
C724 C 0.50000 0.03614 0.66322 0.00000
O725 O 0.47676 0.18288 0.57573 0.00000
O726 O 0.47676 0.19150 0.73520 0.00000
O727 O 0.47676 0.04970 0.66296 0.00000
O728 O 0.44993 0.09974 0.63721 0.00000
O729 O 0.47219 0.12889 0.60798 0.00000
O730 O 0.44993 0.18006 0.63214 0.00000
O731 O 0.47219 0.19069 0.67211 0.00000
O732 O 0.44993 0.14428 0.70455 0.00000
O733 O 0.47219 0.10450 0.69381 0.00000
O734 O 0.55007 0.09974 0.63721 0.00000
O735 O 0.52781 0.12889 0.60798 0.00000
O736 O 0.55007 0.18006 0.63214 0.00000
O737 O 0.52781 0.19069 0.67211 0.00000
O738 O 0.55007 0.14428 0.70455 0.00000
O739 O 0.52781 0.10450 0.69381 0.00000
O740 O 0.52324 0.18288 0.57573 0.00000
O741 O 0.52324 0.19150 0.73520 0.00000
O742 O 0.52324 0.04970 0.66296 0.00000
O743 O 0.50000 0.14136 0.65796 0.00000
F744 F 0.85674 0.42697 0.55984 0.00000
C745 C 0.87612 0.41006 0.57235 0.00000
C746 C 0.87476 0.41617 0.60459 0.00000
F747 F 0.85050 0.40473 0.61396 0.00000
F748 F 0.90194 0.41818 0.56241 0.00000
F749 F 0.89618 0.40220 0.61745 0.00000
F750 F 0.59893 0.10387 0.38466 0.00000
C751 C 0.57862 0.11601 0.40075 0.00000
C752 C 0.59391 0.13419 0.42333 0.00000
F753 F 0.60446 0.15670 0.40957 0.00000
F754 F 0.56456 0.09467 0.41414 0.00000
F755 F 0.57444 0.14392 0.44196 0.00000
F756 F 0.84007 0.59087 0.42241 0.00000
C757 C 0.86839 0.59105 0.42622 0.00000
C758 C 0.88179 0.58170 0.39777 0.00000
F759 F 0.87840 0.60336 0.37966 0.00000
F760 F 0.87430 0.57121 0.44636 0.00000
F761 F 0.90991 0.57830 0.40175 0.00000
F762 F 0.42978 0.87778 0.44383 0.00000
C763 C 0.40782 0.88097 0.42575 0.00000
C764 C 0.41767 0.86958 0.39658 0.00000
F765 F 0.41887 0.84133 0.39904 0.00000
F766 F 0.40290 0.90927 0.42341 0.00000
F767 F 0.39751 0.87555 0.37711 0.00000
F768 F 0.10763 0.38340 0.40040 0.00000
C769 C 0.12770 0.39729 0.41532 0.00000
C770 C 0.12494 0.42895 0.40758 0.00000
F771 F 0.10123 0.43824 0.42019 0.00000
F772 F 0.15321 0.38767 0.40596 0.00000
F773 F 0.14684 0.44308 0.41940 0.00000
F774 F 0.55553 0.57225 0.88182 0.00000
C775 C 0.57432 0.59375 0.88276 0.00000
C776 C 0.60204 0.58266 0.86936 0.00000
F777 F 0.59726 0.58060 0.84133 0.00000
F778 F 0.57908 0.59953 0.91072 0.00000
F779 F 0.62239 0.60242 0.87305 0.00000
F780 F 0.55788 0.42540 0.10858 0.00000
C781 C 0.57599 0.40458 0.11600 0.00000
C782 C 0.60061 0.41877 0.13226 0.00000
F783 F 0.59024 0.42642 0.15767 0.00000
F784 F 0.58625 0.39331 0.09143 0.00000
F785 F 0.62085 0.39912 0.13702 0.00000
F786 F 0.57600 0.85095 0.43706 0.00000
C787 C 0.59561 0.86506 0.42173 0.00000
C788 C 0.57933 0.88352 0.40010 0.00000
F789 F 0.56751 0.90463 0.41501 0.00000
F790 F 0.61087 0.84529 0.40728 0.00000
F791 F 0.59824 0.89532 0.38210 0.00000
F792 F 0.12397 0.61998 0.39642 0.00000
C793 C 0.11934 0.60099 0.41736 0.00000
C794 C 0.13006 0.57210 0.40633 0.00000
F795 F 0.15841 0.57356 0.40626 0.00000
F796 F 0.09081 0.59945 0.42116 0.00000
F797 F 0.12267 0.55193 0.42528 0.00000
F798 F 0.44248 0.89222 0.57615 0.00000
C799 C 0.42425 0.88372 0.59654 0.00000
C800 C 0.40094 0.86630 0.58155 0.00000
F801 F 0.41288 0.84166 0.57401 0.00000
F802 F 0.41237 0.90750 0.60770 0.00000
F803 F 0.38048 0.86033 0.60070 0.00000
F804 F 0.09162 0.58543 0.60192 0.00000
C805 C 0.11710 0.57434 0.59524 0.00000
C806 C 0.13425 0.59811 0.58067 0.00000
F807 F 0.14130 0.61653 0.60118 0.00000
F808 F 0.11237 0.55332 0.57601 0.00000
F809 F 0.15857 0.58690 0.57057 0.00000
F810 F 0.39558 0.09359 0.58733 0.00000
C811 C 0.39771 0.12189 0.58401 0.00000
C812 C 0.42776 0.13032 0.59381 0.00000
F813 F 0.44561 0.12098 0.57373 0.00000
F814 F 0.37847 0.13389 0.60188 0.00000
F815 F 0.42953 0.15887 0.59407 0.00000
F816 F 0.41621 0.15707 0.42927 0.00000
C817 C 0.40180 0.13449 0.41929 0.00000
C818 C 0.42318 0.11624 0.40250 0.00000
F819 F 0.44012 0.10406 0.42185 0.00000
F820 F 0.38195 0.14459 0.40092 0.00000
F821 F 0.40886 0.09527 0.38930 0.00000
F822 F 0.61660 0.85786 0.60123 0.00000
C823 C 0.59817 0.86549 0.58068 0.00000
C824 C 0.57447 0.88269 0.59532 0.00000
F825 F 0.58585 0.90776 0.60229 0.00000
F826 F 0.58683 0.84120 0.57006 0.00000
F827 F 0.55387 0.88777 0.57606 0.00000
F828 F 0.44130 0.57542 0.85731 0.00000
C829 C 0.42359 0.59584 0.86660 0.00000
C830 C 0.39976 0.58086 0.88332 0.00000
F831 F 0.41133 0.57200 0.90780 0.00000
F832 F 0.41218 0.60827 0.84313 0.00000
F833 F 0.37980 0.60022 0.89001 0.00000
F834 F 0.57653 0.55980 0.10419 0.00000
C835 C 0.59636 0.57692 0.11566 0.00000
C836 C 0.58039 0.59977 0.13284 0.00000
F837 F 0.57017 0.58683 0.15604 0.00000
F838 F 0.61009 0.58964 0.09365 0.00000
F839 F 0.59931 0.61929 0.14178 0.00000
F840 F 0.39998 0.61674 0.14304 0.00000
C841 C 0.42033 0.59911 0.13343 0.00000
C842 C 0.40520 0.57541 0.11663 0.00000
F843 F 0.39615 0.58719 0.09233 0.00000
F844 F 0.43295 0.58750 0.15669 0.00000
F845 F 0.42451 0.55551 0.10962 0.00000
F846 F 0.38371 0.40043 0.14401 0.00000
C847 C 0.40110 0.42054 0.13350 0.00000
C848 C 0.42439 0.40502 0.11651 0.00000
F849 F 0.41205 0.39539 0.09271 0.00000
F850 F 0.41325 0.43370 0.15618 0.00000
F851 F 0.44412 0.42415 0.10857 0.00000
F852 F 0.42561 0.44233 0.85994 0.00000
C853 C 0.40469 0.42412 0.86684 0.00000
C854 C 0.41867 0.39929 0.88295 0.00000
F855 F 0.42598 0.40932 0.90860 0.00000
F856 F 0.39374 0.41419 0.84199 0.00000
F857 F 0.39896 0.37899 0.88718 0.00000
F858 F 0.55831 0.42497 0.85823 0.00000
C859 C 0.57622 0.40435 0.86668 0.00000
C860 C 0.60041 0.41897 0.88320 0.00000
F861 F 0.58938 0.42729 0.90811 0.00000
F862 F 0.58711 0.39244 0.84270 0.00000
F863 F 0.62051 0.39947 0.88901 0.00000
F864 F 0.90717 0.39725 0.41428 0.00000
C865 C 0.88215 0.40651 0.42456 0.00000
C866 C 0.86657 0.42100 0.39961 0.00000
F867 F 0.85817 0.40022 0.38211 0.00000
F868 F 0.88810 0.42634 0.44469 0.00000
F869 F 0.84298 0.43355 0.40985 0.00000
F870 F 0.15796 0.39683 0.58920 0.00000
C871 C 0.12983 0.39786 0.58424 0.00000
C872 C 0.11969 0.42755 0.59351 0.00000
F873 F 0.12948 0.44578 0.57398 0.00000
F874 F 0.11758 0.37815 0.60140 0.00000
F875 F 0.09114 0.42821 0.59211 0.00000
F876 F 0.57362 0.14465 0.56047 0.00000
C877 C 0.59456 0.13472 0.57726 0.00000
C878 C 0.58030 0.11697 0.60084 0.00000
F879 F 0.57120 0.09310 0.58840 0.00000
F880 F 0.60723 0.15761 0.58940 0.00000
F881 F 0.60023 0.10953 0.62003 0.00000
F882 F 0.84552 0.56513 0.58559 0.00000
C883 C 0.87261 0.57102 0.59256 0.00000
C884 C 0.87805 0.60208 0.58386 0.00000
F885 F 0.86386 0.61820 0.60252 0.00000
F886 F 0.88931 0.55386 0.57645 0.00000
F887 F 0.90587 0.60771 0.58731 0.00000
F888 F 0.01182 0.46857 0.64334 0.00000
C889 C 0.01374 0.49651 0.64900 0.00000
C890 C 0.98630 0.50490 0.66475 0.00000
F891 F 0.98822 0.49378 0.69092 0.00000
F892 F 0.01446 0.51016 0.62351 0.00000
F893 F 0.98588 0.53334 0.66771 0.00000
F894 F 0.53070 0.98817 0.35821 0.00000
C895 C 0.50307 0.98626 0.35117 0.00000
C896 C 0.49547 0.01370 0.33502 0.00000
F897 F 0.50787 0.01178 0.30943 0.00000
F898 F 0.48818 0.98554 0.37594 0.00000
F899 F 0.46721 0.01412 0.33064 0.00000
F900 F 0.01182 0.53178 0.35586 0.00000
C901 C 0.01374 0.50369 0.35091 0.00000
C902 C 0.98630 0.49492 0.33537 0.00000
F903 F 0.98822 0.50538 0.30893 0.00000
F904 F 0.01446 0.49069 0.37673 0.00000
F905 F 0.98588 0.46641 0.33313 0.00000
F906 F 0.68710 0.51501 0.01188 0.00000
C907 C 0.65935 0.50847 0.01380 0.00000
C908 C 0.65148 0.49253 0.98623 0.00000
F909 F 0.66344 0.46685 0.98816 0.00000
F910 F 0.64489 0.53339 0.01452 0.00000
F911 F 0.62315 0.48866 0.98581 0.00000
F912 F 0.46825 0.01182 0.67073 0.00000
C913 C 0.49632 0.01374 0.66572 0.00000
C914 C 0.50507 0.98630 0.65016 0.00000
F915 F 0.49455 0.98822 0.62375 0.00000
F916 F 0.50938 0.01446 0.69151 0.00000
F917 F 0.53357 0.98588 0.64786 0.00000
F918 F 0.32197 0.98817 0.48133 0.00000
C919 C 0.34875 0.98626 0.49116 0.00000
C920 C 0.35467 0.01370 0.50801 0.00000
F921 F 0.33974 0.01178 0.53219 0.00000
F922 F 0.36607 0.98554 0.46804 0.00000
F923 F 0.38234 0.01412 0.51525 0.00000
F924 F 0.98818 0.63445 0.46871 0.00000
C925 C 0.98626 0.64063 0.49667 0.00000
C926 C 0.01370 0.65648 0.50477 0.00000
F927 F 0.01178 0.68230 0.49308 0.00000
F928 F 0.98554 0.61554 0.51088 0.00000
F929 F 0.01412 0.66000 0.53328 0.00000
F930 F 0.67946 0.01182 0.48379 0.00000
C931 C 0.65197 0.01374 0.49137 0.00000
C932 C 0.64469 0.98630 0.50767 0.00000
F933 F 0.65759 0.98822 0.53300 0.00000
F934 F 0.63659 0.01446 0.46690 0.00000
F935 F 0.61652 0.98588 0.51261 0.00000
F936 F 0.98818 0.37423 0.47456 0.00000
C937 C 0.98626 0.35081 0.49090 0.00000
C938 C 0.01370 0.34934 0.50870 0.00000
F939 F 0.01178 0.36989 0.52828 0.00000
F940 F 0.98554 0.32822 0.47295 0.00000
F941 F 0.01412 0.32440 0.52276 0.00000
F942 F 0.52990 0.67316 0.01188 0.00000
C943 C 0.50264 0.66480 0.01381 0.00000
C944 C 0.49585 0.64837 0.98623 0.00000
F945 F 0.50948 0.62354 0.98816 0.00000
F946 F 0.48656 0.68871 0.01452 0.00000
F947 F 0.46783 0.64263 0.98581 0.00000
F948 F 0.37541 0.51374 0.01188 0.00000
C949 C 0.34742 0.50834 0.01381 0.00000
C950 C 0.33890 0.49272 0.98623 0.00000
F951 F 0.34981 0.46658 0.98816 0.00000
F952 F 0.33398 0.53382 0.01452 0.00000
F953 F 0.31044 0.49001 0.98581 0.00000
F954 F 0.48856 0.31141 0.01188 0.00000
C955 C 0.50368 0.33558 0.01380 0.00000
C956 C 0.49805 0.35245 0.98623 0.00000
F957 F 0.47148 0.36228 0.98816 0.00000
F958 F 0.53149 0.32806 0.01452 0.00000
F959 F 0.51546 0.37514 0.98581 0.00000
F960 F 0.75323 0.48225 0.76906 0.00000
C961 C 0.77031 0.49127 0.79022 0.00000
C962 C 0.79472 0.50786 0.77607 0.00000
F963 F 0.78359 0.53235 0.76695 0.00000
F964 F 0.78116 0.46777 0.80293 0.00000
F965 F 0.81406 0.51428 0.79622 0.00000
F966 F 0.49067 0.18673 0.20125 0.00000
C967 C 0.50421 0.20247 0.22097 0.00000
C968 C 0.49750 0.23377 0.21422 0.00000
F969 F 0.47036 0.23790 0.22147 0.00000
F970 F 0.53244 0.19804 0.21726 0.00000
F971 F 0.51341 0.25031 0.23135 0.00000
F972 F 0.75354 0.51848 0.23061 0.00000
C973 C 0.77045 0.50879 0.20962 0.00000
C974 C 0.79458 0.49204 0.22407 0.00000
F975 F 0.78304 0.46792 0.23364 0.00000
F976 F 0.78171 0.53187 0.19648 0.00000
F977 F 0.81381 0.48493 0.20404 0.00000
F978 F 0.53391 0.78663 0.22984 0.00000
C979 C 0.50755 0.79546 0.22318 0.00000
C980 C 0.49186 0.76971 0.21048 0.00000
F981 F 0.48660 0.75209 0.23222 0.00000
F982 F 0.51033 0.81558 0.20264 0.00000
F983 F 0.46659 0.77854 0.20038 0.00000
F984 F 0.19050 0.47946 0.20529 0.00000
C985 C 0.20689 0.49107 0.22571 0.00000
C986 C 0.23017 0.50821 0.21036 0.00000
F987 F 0.21746 0.53119 0.19953 0.00000
F988 F 0.21926 0.46931 0.24005 0.00000
F989 F 0.24900 0.51732 0.22995 0.00000
F990 F 0.47053 0.80278 0.78749 0.00000
C991 C 0.49757 0.79801 0.77955 0.00000
C992 C 0.50396 0.76662 0.78621 0.00000
F993 F 0.48971 0.75130 0.76693 0.00000
F994 F 0.51425 0.81458 0.79629 0.00000
F995 F 0.53182 0.76192 0.78178 0.00000
F996 F 0.19508 0.78819 0.48053 0.00000
C997 C 0.21246 0.76810 0.49111 0.00000
C998 C 0.23572 0.78366 0.50811 0.00000
F999 F 0.22334 0.79332 0.53186 0.00000
F1000 F 0.22465 0.75490 0.46848 0.00000
F1001 F 0.25543 0.76454 0.51613 0.00000
F1002 F 0.76454 0.25218 0.51912 0.00000
C1003 C 0.78472 0.23471 0.50887 0.00000
C1004 C 0.76932 0.21131 0.49193 0.00000
F1005 F 0.75985 0.22349 0.46799 0.00000
F1006 F 0.79773 0.22272 0.53172 0.00000
F1007 F 0.78850 0.19152 0.48426 0.00000
F1008 F 0.78851 0.80524 0.48122 0.00000
C1009 C 0.76825 0.78769 0.49116 0.00000
C1010 C 0.78352 0.76414 0.50802 0.00000
F1011 F 0.79279 0.77612 0.53214 0.00000
F1012 F 0.75543 0.77588 0.46810 0.00000
F1013 F 0.76428 0.74430 0.51538 0.00000
F1014 F 0.19225 0.20897 0.48847 0.00000
C1015 C 0.20797 0.22741 0.50369 0.00000
C1016 C 0.23931 0.21993 0.49805 0.00000
F1017 F 0.24493 0.22827 0.47138 0.00000
F1018 F 0.20212 0.22257 0.53161 0.00000
F1019 F 0.25563 0.23566 0.51557 0.00000
F1020 F 0.22993 0.48333 0.75237 0.00000
C1021 C 0.20984 0.49136 0.77112 0.00000
C1022 C 0.22510 0.50771 0.79509 0.00000
F1023 F 0.23281 0.53270 0.78399 0.00000
F1024 F 0.19853 0.46727 0.78222 0.00000
F1025 F 0.20623 0.51312 0.81598 0.00000
F1026 F 0.46951 0.22025 0.76276 0.00000
C1027 C 0.49705 0.21381 0.76686 0.00000
C1028 C 0.50443 0.22280 0.79756 0.00000
F1029 F 0.49169 0.20412 0.81480 0.00000
F1030 F 0.51226 0.23000 0.74842 0.00000
F1031 F 0.53263 0.21988 0.80132 0.00000
loop_
_geom_bond_atom_site_label_1
_geom_bond_atom_site_label_2
_geom_bond_distance
_geom_bond_site_symmetry_2
_ccdc_geom_bond_type
U0 O14 2.438 . S
U0 O15 2.465 . S
U0 O20 2.420 . S
U0 O21 2.465 . S
U0 O26 2.420 . S
U0 O29 2.438 . S
U0 O30 2.225 . S
U1 O12 2.438 . S
U1 O16 2.420 . S
U1 O17 2.465 . S
U1 O22 2.420 . S
U1 O23 2.465 . S
U1 O27 2.438 . S
U1 O30 2.225 . S
U2 O13 2.438 . S
U2 O18 2.420 . S
U2 O19 2.465 . S
U2 O24 2.420 . S
U2 O25 2.465 . S
U2 O28 2.438 . S
U2 O30 2.225 . S
C3 O15 1.243 . A
C3 O16 1.285 . A
C4 O17 1.243 . A
C4 O18 1.285 . A
C5 O19 1.243 . A
C5 O20 1.285 . A
C6 O21 1.243 . A
C6 O22 1.285 . A
C7 O23 1.243 . A
C7 O24 1.285 . A
C8 O25 1.243 . A
C8 O26 1.285 . A
C9 O12 1.267 . A
C9 O27 1.267 . A
C10 O13 1.267 . A
C10 O28 1.267 . A
C11 O14 1.267 . A
C11 O29 1.267 . A
U31 O45 2.438 . S
U31 O46 2.465 . S
U31 O51 2.420 . S
U31 O52 2.465 . S
U31 O57 2.420 . S
U31 O60 2.438 . S
U31 O61 2.225 . S
U32 O43 2.438 . S
U32 O47 2.420 . S
U32 O48 2.465 . S
U32 O53 2.420 . S
U32 O54 2.465 . S
U32 O58 2.438 . S
U32 O61 2.225 . S
U33 O44 2.438 . S
U33 O49 2.420 . S
U33 O50 2.465 . S
U33 O55 2.420 . S
U33 O56 2.465 . S
U33 O59 2.438 . S
U33 O61 2.225 . S
C34 O46 1.243 . A
C34 O47 1.285 . A
C35 O48 1.243 . A
C35 O49 1.285 . A
C36 O50 1.243 . A
C36 O51 1.285 . A
C37 O52 1.243 . A
C37 O53 1.285 . A
C38 O54 1.243 . A
C38 O55 1.285 . A
C39 O56 1.243 . A
C39 O57 1.285 . A
C40 O43 1.267 . A
C40 O58 1.267 . A
C41 O44 1.267 . A
C41 O59 1.267 . A
C42 O45 1.267 . A
C42 O60 1.267 . A
U62 O76 2.438 . S
U62 O77 2.465 . S
U62 O82 2.420 . S
U62 O83 2.465 . S
U62 O88 2.420 . S
U62 O91 2.438 . S
U62 O92 2.225 . S
U63 O74 2.438 . S
U63 O78 2.420 . S
U63 O79 2.465 . S
U63 O84 2.420 . S
U63 O85 2.465 . S
U63 O89 2.438 . S
U63 O92 2.225 . S
U64 O75 2.438 . S
U64 O80 2.420 . S
U64 O81 2.465 . S
U64 O86 2.420 . S
U64 O87 2.465 . S
U64 O90 2.438 . S
U64 O92 2.225 . S
C65 O77 1.243 . A
C65 O78 1.285 . A
C66 O79 1.243 . A
C66 O80 1.285 . A
C67 O81 1.243 . A
C67 O82 1.285 . A
C68 O83 1.243 . A
C68 O84 1.285 . A
C69 O85 1.243 . A
C69 O86 1.285 . A
C70 O87 1.243 . A
C70 O88 1.285 . A
C71 O74 1.267 . A
C71 O89 1.267 . A
C72 O75 1.267 . A
C72 O90 1.267 . A
C73 O76 1.267 . A
C73 O91 1.267 . A
U93 O107 2.438 . S
U93 O108 2.465 . S
U93 O113 2.420 . S
U93 O114 2.465 . S
U93 O119 2.420 . S
U93 O122 2.438 . S
U93 O123 2.225 . S
U94 O105 2.438 . S
U94 O109 2.420 . S
U94 O110 2.465 . S
U94 O115 2.420 . S
U94 O116 2.465 . S
U94 O120 2.438 . S
U94 O123 2.225 . S
U95 O106 2.438 . S
U95 O111 2.420 . S
U95 O112 2.465 . S
U95 O117 2.420 . S
U95 O118 2.465 . S
U95 O121 2.438 . S
U95 O123 2.225 . S
C96 O108 1.243 . A
C96 O109 1.285 . A
C97 O110 1.243 . A
C97 O111 1.285 . A
C98 O112 1.243 . A
C98 O113 1.285 . A
C99 O114 1.243 . A
C99 O115 1.285 . A
C100 O116 1.243 . A
C100 O117 1.285 . A
C101 O118 1.243 . A
C101 O119 1.285 . A
C102 O105 1.267 . A
C102 O120 1.267 . A
C103 O106 1.267 . A
C103 O121 1.267 . A
C104 O107 1.267 . A
C104 O122 1.267 . A
U124 O138 2.438 . S
U124 O139 2.465 . S
U124 O144 2.420 . S
U124 O145 2.465 . S
U124 O150 2.420 . S
U124 O153 2.438 . S
U124 O154 2.225 . S
U125 O136 2.438 . S
U125 O140 2.420 . S
U125 O141 2.465 . S
U125 O146 2.420 . S
U125 O147 2.465 . S
U125 O151 2.438 . S
U125 O154 2.225 . S
U126 O137 2.438 . S
U126 O142 2.420 . S
U126 O143 2.465 . S
U126 O148 2.420 . S
U126 O149 2.465 . S
U126 O152 2.438 . S
U126 O154 2.225 . S
C127 O139 1.243 . A
C127 O140 1.285 . A
C128 O141 1.243 . A
C128 O142 1.285 . A
C129 O143 1.243 . A
C129 O144 1.285 . A
C130 O145 1.243 . A
C130 O146 1.285 . A
C131 O147 1.243 . A
C131 O148 1.285 . A
C132 O149 1.243 . A
C132 O150 1.285 . A
C133 O136 1.267 . A
C133 O151 1.267 . A
C134 O137 1.267 . A
C134 O152 1.267 . A
C135 O138 1.267 . A
C135 O153 1.267 . A
U155 O169 2.438 . S
U155 O170 2.465 . S
U155 O175 2.420 . S
U155 O176 2.465 . S
U155 O181 2.420 . S
U155 O184 2.438 . S
U155 O185 2.225 . S
U156 O167 2.438 . S
U156 O171 2.420 . S
U156 O172 2.465 . S
U156 O177 2.420 . S
U156 O178 2.465 . S
U156 O182 2.438 . S
U156 O185 2.225 . S
U157 O168 2.438 . S
U157 O173 2.420 . S
U157 O174 2.465 . S
U157 O179 2.420 . S
U157 O180 2.465 . S
U157 O183 2.438 . S
U157 O185 2.225 . S
C158 O170 1.243 . A
C158 O171 1.285 . A
C159 O172 1.243 . A
C159 O173 1.285 . A
C160 O174 1.243 . A
C160 O175 1.285 . A
C161 O176 1.243 . A
C161 O177 1.285 . A
C162 O178 1.243 . A
C162 O179 1.285 . A
C163 O180 1.243 . A
C163 O181 1.285 . A
C164 O167 1.267 . A
C164 O182 1.267 . A
C165 O168 1.267 . A
C165 O183 1.267 . A
C166 O169 1.267 . A
C166 O184 1.267 . A
U186 O200 2.438 . S
U186 O201 2.465 . S
U186 O206 2.420 . S
U186 O207 2.465 . S
U186 O212 2.420 . S
U186 O215 2.438 . S
U186 O216 2.225 . S
U187 O198 2.438 . S
U187 O202 2.420 . S
U187 O203 2.465 . S
U187 O208 2.420 . S
U187 O209 2.465 . S
U187 O213 2.438 . S
U187 O216 2.225 . S
U188 O199 2.438 . S
U188 O204 2.420 . S
U188 O205 2.465 . S
U188 O210 2.420 . S
U188 O211 2.465 . S
U188 O214 2.438 . S
U188 O216 2.225 . S
C189 O201 1.243 . A
C189 O202 1.285 . A
C190 O203 1.243 . A
C190 O204 1.285 . A
C191 O205 1.243 . A
C191 O206 1.285 . A
C192 O207 1.243 . A
C192 O208 1.285 . A
C193 O209 1.243 . A
C193 O210 1.285 . A
C194 O211 1.243 . A
C194 O212 1.285 . A
C195 O198 1.267 . A
C195 O213 1.267 . A
C196 O199 1.267 . A
C196 O214 1.267 . A
C197 O200 1.267 . A
C197 O215 1.267 . A
U217 O231 2.438 . S
U217 O232 2.465 . S
U217 O237 2.420 . S
U217 O238 2.465 . S
U217 O243 2.420 . S
U217 O246 2.438 . S
U217 O247 2.225 . S
U218 O229 2.438 . S
U218 O233 2.420 . S
U218 O234 2.465 . S
U218 O239 2.420 . S
U218 O240 2.465 . S
U218 O244 2.438 . S
U218 O247 2.225 . S
U219 O230 2.438 . S
U219 O235 2.420 . S
U219 O236 2.465 . S
U219 O241 2.420 . S
U219 O242 2.465 . S
U219 O245 2.438 . S
U219 O247 2.225 . S
C220 O232 1.243 . A
C220 O233 1.285 . A
C221 O234 1.243 . A
C221 O235 1.285 . A
C222 O236 1.243 . A
C222 O237 1.285 . A
C223 O238 1.243 . A
C223 O239 1.285 . A
C224 O240 1.243 . A
C224 O241 1.285 . A
C225 O242 1.243 . A
C225 O243 1.285 . A
C226 O229 1.267 . A
C226 O244 1.267 . A
C227 O230 1.267 . A
C227 O245 1.267 . A
C228 O231 1.267 . A
C228 O246 1.267 . A
U248 O262 2.438 . S
U248 O263 2.465 . S
U248 O268 2.420 . S
U248 O269 2.465 . S
U248 O274 2.420 . S
U248 O277 2.438 . S
U248 O278 2.225 . S
U249 O260 2.438 . S
U249 O264 2.420 . S
U249 O265 2.465 . S
U249 O270 2.420 . S
U249 O271 2.465 . S
U249 O275 2.438 . S
U249 O278 2.225 . S
U250 O261 2.438 . S
U250 O266 2.420 . S
U250 O267 2.465 . S
U250 O272 2.420 . S
U250 O273 2.465 . S
U250 O276 2.438 . S
U250 O278 2.225 . S
C251 O263 1.243 . A
C251 O264 1.285 . A
C252 O265 1.243 . A
C252 O266 1.285 . A
C253 O267 1.243 . A
C253 O268 1.285 . A
C254 O269 1.243 . A
C254 O270 1.285 . A
C255 O271 1.243 . A
C255 O272 1.285 . A
C256 O273 1.243 . A
C256 O274 1.285 . A
C257 O260 1.267 . A
C257 O275 1.267 . A
C258 O261 1.267 . A
C258 O276 1.267 . A
C259 O262 1.267 . A
C259 O277 1.267 . A
U279 O293 2.438 . S
U279 O294 2.465 . S
U279 O299 2.420 . S
U279 O300 2.465 . S
U279 O305 2.420 . S
U279 O308 2.438 . S
U279 O309 2.225 . S
U280 O291 2.438 . S
U280 O295 2.420 . S
U280 O296 2.465 . S
U280 O301 2.420 . S
U280 O302 2.465 . S
U280 O306 2.438 . S
U280 O309 2.225 . S
U281 O292 2.438 . S
U281 O297 2.420 . S
U281 O298 2.465 . S
U281 O303 2.420 . S
U281 O304 2.465 . S
U281 O307 2.438 . S
U281 O309 2.225 . S
C282 O294 1.243 . A
C282 O295 1.285 . A
C283 O296 1.243 . A
C283 O297 1.285 . A
C284 O298 1.243 . A
C284 O299 1.285 . A
C285 O300 1.243 . A
C285 O301 1.285 . A
C286 O302 1.243 . A
C286 O303 1.285 . A
C287 O304 1.243 . A
C287 O305 1.285 . A
C288 O291 1.267 . A
C288 O306 1.267 . A
C289 O292 1.267 . A
C289 O307 1.267 . A
C290 O293 1.267 . A
C290 O308 1.267 . A
U310 O324 2.438 . S
U310 O325 2.465 . S
U310 O330 2.420 . S
U310 O331 2.465 . S
U310 O336 2.420 . S
U310 O339 2.438 . S
U310 O340 2.225 . S
U311 O322 2.438 . S
U311 O326 2.420 . S
U311 O327 2.465 . S
U311 O332 2.420 . S
U311 O333 2.465 . S
U311 O337 2.438 . S
U311 O340 2.225 . S
U312 O323 2.438 . S
U312 O328 2.420 . S
U312 O329 2.465 . S
U312 O334 2.420 . S
U312 O335 2.465 . S
U312 O338 2.438 . S
U312 O340 2.225 . S
C313 O325 1.243 . A
C313 O326 1.285 . A
C314 O327 1.243 . A
C314 O328 1.285 . A
C315 O329 1.243 . A
C315 O330 1.285 . A
C316 O331 1.243 . A
C316 O332 1.285 . A
C317 O333 1.243 . A
C317 O334 1.285 . A
C318 O335 1.243 . A
C318 O336 1.285 . A
C319 O322 1.267 . A
C319 O337 1.267 . A
C320 O323 1.267 . A
C320 O338 1.267 . A
C321 O324 1.267 . A
C321 O339 1.267 . A
U341 O355 2.438 . S
U341 O356 2.465 . S
U341 O361 2.420 . S
U341 O362 2.465 . S
U341 O367 2.420 . S
U341 O370 2.438 . S
U341 O371 2.225 . S
U342 O353 2.438 . S
U342 O357 2.420 . S
U342 O358 2.465 . S
U342 O363 2.420 . S
U342 O364 2.465 . S
U342 O368 2.438 . S
U342 O371 2.225 . S
U343 O354 2.438 . S
U343 O359 2.420 . S
U343 O360 2.465 . S
U343 O365 2.420 . S
U343 O366 2.465 . S
U343 O369 2.438 . S
U343 O371 2.225 . S
C344 O356 1.243 . A
C344 O357 1.285 . A
C345 O358 1.243 . A
C345 O359 1.285 . A
C346 O360 1.243 . A
C346 O361 1.285 . A
C347 O362 1.243 . A
C347 O363 1.285 . A
C348 O364 1.243 . A
C348 O365 1.285 . A
C349 O366 1.243 . A
C349 O367 1.285 . A
C350 O353 1.267 . A
C350 O368 1.267 . A
C351 O354 1.267 . A
C351 O369 1.267 . A
C352 O355 1.267 . A
C352 O370 1.267 . A
U372 O386 2.438 . S
U372 O387 2.465 . S
U372 O392 2.420 . S
U372 O393 2.465 . S
U372 O398 2.420 . S
U372 O401 2.438 . S
U372 O402 2.225 . S
U373 O384 2.438 . S
U373 O388 2.420 . S
U373 O389 2.465 . S
U373 O394 2.420 . S
U373 O395 2.465 . S
U373 O399 2.438 . S
U373 O402 2.225 . S
U374 O385 2.438 . S
U374 O390 2.420 . S
U374 O391 2.465 . S
U374 O396 2.420 . S
U374 O397 2.465 . S
U374 O400 2.438 . S
U374 O402 2.225 . S
C375 O387 1.243 . A
C375 O388 1.285 . A
C376 O389 1.243 . A
C376 O390 1.285 . A
C377 O391 1.243 . A
C377 O392 1.285 . A
C378 O393 1.243 . A
C378 O394 1.285 . A
C379 O395 1.243 . A
C379 O396 1.285 . A
C380 O397 1.243 . A
C380 O398 1.285 . A
C381 O384 1.267 . A
C381 O399 1.267 . A
C382 O385 1.267 . A
C382 O400 1.267 . A
C383 O386 1.267 . A
C383 O401 1.267 . A
U403 O417 2.438 . S
U403 O418 2.465 . S
U403 O423 2.420 . S
U403 O424 2.465 . S
U403 O429 2.420 . S
U403 O432 2.438 . S
U403 O433 2.225 . S
U404 O415 2.438 . S
U404 O419 2.420 . S
U404 O420 2.465 . S
U404 O425 2.420 . S
U404 O426 2.465 . S
U404 O430 2.438 . S
U404 O433 2.225 . S
U405 O416 2.438 . S
U405 O421 2.420 . S
U405 O422 2.465 . S
U405 O427 2.420 . S
U405 O428 2.465 . S
U405 O431 2.438 . S
U405 O433 2.225 . S
C406 O418 1.243 . A
C406 O419 1.285 . A
C407 O420 1.243 . A
C407 O421 1.285 . A
C408 O422 1.243 . A
C408 O423 1.285 . A
C409 O424 1.243 . A
C409 O425 1.285 . A
C410 O426 1.243 . A
C410 O427 1.285 . A
C411 O428 1.243 . A
C411 O429 1.285 . A
C412 O415 1.267 . A
C412 O430 1.267 . A
C413 O416 1.267 . A
C413 O431 1.267 . A
C414 O417 1.267 . A
C414 O432 1.267 . A
U434 O448 2.438 . S
U434 O449 2.465 . S
U434 O454 2.420 . S
U434 O455 2.465 . S
U434 O460 2.420 . S
U434 O463 2.438 . S
U434 O464 2.225 . S
U435 O446 2.438 . S
U435 O450 2.420 . S
U435 O451 2.465 . S
U435 O456 2.420 . S
U435 O457 2.465 . S
U435 O461 2.438 . S
U435 O464 2.225 . S
U436 O447 2.438 . S
U436 O452 2.420 . S
U436 O453 2.465 . S
U436 O458 2.420 . S
U436 O459 2.465 . S
U436 O462 2.438 . S
U436 O464 2.225 . S
C437 O449 1.243 . A
C437 O450 1.285 . A
C438 O451 1.243 . A
C438 O452 1.285 . A
C439 O453 1.243 . A
C439 O454 1.285 . A
C440 O455 1.243 . A
C440 O456 1.285 . A
C441 O457 1.243 . A
C441 O458 1.285 . A
C442 O459 1.243 . A
C442 O460 1.285 . A
C443 O446 1.267 . A
C443 O461 1.267 . A
C444 O447 1.267 . A
C444 O462 1.267 . A
C445 O448 1.267 . A
C445 O463 1.267 . A
U465 O479 2.438 . S
U465 O480 2.465 . S
U465 O485 2.420 . S
U465 O486 2.465 . S
U465 O491 2.420 . S
U465 O494 2.438 . S
U465 O495 2.225 . S
U466 O477 2.438 . S
U466 O481 2.420 . S
U466 O482 2.465 . S
U466 O487 2.420 . S
U466 O488 2.465 . S
U466 O492 2.438 . S
U466 O495 2.225 . S
U467 O478 2.438 . S
U467 O483 2.420 . S
U467 O484 2.465 . S
U467 O489 2.420 . S
U467 O490 2.465 . S
U467 O493 2.438 . S
U467 O495 2.225 . S
C468 O480 1.243 . A
C468 O481 1.285 . A
C469 O482 1.243 . A
C469 O483 1.285 . A
C470 O484 1.243 . A
C470 O485 1.285 . A
C471 O486 1.243 . A
C471 O487 1.285 . A
C472 O488 1.243 . A
C472 O489 1.285 . A
C473 O490 1.243 . A
C473 O491 1.285 . A
C474 O477 1.267 . A
C474 O492 1.267 . A
C475 O478 1.267 . A
C475 O493 1.267 . A
C476 O479 1.267 . A
C476 O494 1.267 . A
U496 O510 2.438 . S
U496 O511 2.465 . S
U496 O516 2.420 . S
U496 O517 2.465 . S
U496 O522 2.420 . S
U496 O525 2.438 . S
U496 O526 2.225 . S
U497 O508 2.438 . S
U497 O512 2.420 . S
U497 O513 2.465 . S
U497 O518 2.420 . S
U497 O519 2.465 . S
U497 O523 2.438 . S
U497 O526 2.225 . S
U498 O509 2.438 . S
U498 O514 2.420 . S
U498 O515 2.465 . S
U498 O520 2.420 . S
U498 O521 2.465 . S
U498 O524 2.438 . S
U498 O526 2.225 . S
C499 O511 1.243 . A
C499 O512 1.285 . A
C500 O513 1.243 . A
C500 O514 1.285 . A
C501 O515 1.243 . A
C501 O516 1.285 . A
C502 O517 1.243 . A
C502 O518 1.285 . A
C503 O519 1.243 . A
C503 O520 1.285 . A
C504 O521 1.243 . A
C504 O522 1.285 . A
C505 O508 1.267 . A
C505 O523 1.267 . A
C506 O509 1.267 . A
C506 O524 1.267 . A
C507 O510 1.267 . A
C507 O525 1.267 . A
U527 O541 2.438 . S
U527 O542 2.465 . S
U527 O547 2.420 . S
U527 O548 2.465 . S
U527 O553 2.420 . S
U527 O556 2.438 . S
U527 O557 2.225 . S
U528 O539 2.438 . S
U528 O543 2.420 . S
U528 O544 2.465 . S
U528 O549 2.420 . S
U528 O550 2.465 . S
U528 O554 2.438 . S
U528 O557 2.225 . S
U529 O540 2.438 . S
U529 O545 2.420 . S
U529 O546 2.465 . S
U529 O551 2.420 . S
U529 O552 2.465 . S
U529 O555 2.438 . S
U529 O557 2.225 . S
C530 O542 1.243 . A
C530 O543 1.285 . A
C531 O544 1.243 . A
C531 O545 1.285 . A
C532 O546 1.243 . A
C532 O547 1.285 . A
C533 O548 1.243 . A
C533 O549 1.285 . A
C534 O550 1.243 . A
C534 O551 1.285 . A
C535 O552 1.243 . A
C535 O553 1.285 . A
C536 O539 1.267 . A
C536 O554 1.267 . A
C537 O540 1.267 . A
C537 O555 1.267 . A
C538 O541 1.267 . A
C538 O556 1.267 . A
U558 O572 2.438 . S
U558 O573 2.465 . S
U558 O578 2.420 . S
U558 O579 2.465 . S
U558 O584 2.420 . S
U558 O587 2.438 . S
U558 O588 2.225 . S
U559 O570 2.438 . S
U559 O574 2.420 . S
U559 O575 2.465 . S
U559 O580 2.420 . S
U559 O581 2.465 . S
U559 O585 2.438 . S
U559 O588 2.225 . S
U560 O571 2.438 . S
U560 O576 2.420 . S
U560 O577 2.465 . S
U560 O582 2.420 . S
U560 O583 2.465 . S
U560 O586 2.438 . S
U560 O588 2.225 . S
C561 O573 1.243 . A
C561 O574 1.285 . A
C562 O575 1.243 . A
C562 O576 1.285 . A
C563 O577 1.243 . A
C563 O578 1.285 . A
C564 O579 1.243 . A
C564 O580 1.285 . A
C565 O581 1.243 . A
C565 O582 1.285 . A
C566 O583 1.243 . A
C566 O584 1.285 . A
C567 O570 1.267 . A
C567 O585 1.267 . A
C568 O571 1.267 . A
C568 O586 1.267 . A
C569 O572 1.267 . A
C569 O587 1.267 . A
U589 O603 2.438 . S
U589 O604 2.465 . S
U589 O609 2.420 . S
U589 O610 2.465 . S
U589 O615 2.420 . S
U589 O618 2.438 . S
U589 O619 2.225 . S
U590 O601 2.438 . S
U590 O605 2.420 . S
U590 O606 2.465 . S
U590 O611 2.420 . S
U590 O612 2.465 . S
U590 O616 2.438 . S
U590 O619 2.225 . S
U591 O602 2.438 . S
U591 O607 2.420 . S
U591 O608 2.465 . S
U591 O613 2.420 . S
U591 O614 2.465 . S
U591 O617 2.438 . S
U591 O619 2.225 . S
C592 O604 1.243 . A
C592 O605 1.285 . A
C593 O606 1.243 . A
C593 O607 1.285 . A
C594 O608 1.243 . A
C594 O609 1.285 . A
C595 O610 1.243 . A
C595 O611 1.285 . A
C596 O612 1.243 . A
C596 O613 1.285 . A
C597 O614 1.243 . A
C597 O615 1.285 . A
C598 O601 1.267 . A
C598 O616 1.267 . A
C599 O602 1.267 . A
C599 O617 1.267 . A
C600 O603 1.267 . A
C600 O618 1.267 . A
U620 O634 2.438 . S
U620 O635 2.465 . S
U620 O640 2.420 . S
U620 O641 2.465 . S
U620 O646 2.420 . S
U620 O649 2.438 . S
U620 O650 2.225 . S
U621 O632 2.438 . S
U621 O636 2.420 . S
U621 O637 2.465 . S
U621 O642 2.420 . S
U621 O643 2.465 . S
U621 O647 2.438 . S
U621 O650 2.225 . S
U622 O633 2.438 . S
U622 O638 2.420 . S
U622 O639 2.465 . S
U622 O644 2.420 . S
U622 O645 2.465 . S
U622 O648 2.438 . S
U622 O650 2.225 . S
C623 O635 1.243 . A
C623 O636 1.285 . A
C624 O637 1.243 . A
C624 O638 1.285 . A
C625 O639 1.243 . A
C625 O640 1.285 . A
C626 O641 1.243 . A
C626 O642 1.285 . A
C627 O643 1.243 . A
C627 O644 1.285 . A
C628 O645 1.243 . A
C628 O646 1.285 . A
C629 O632 1.267 . A
C629 O647 1.267 . A
C630 O633 1.267 . A
C630 O648 1.267 . A
C631 O634 1.267 . A
C631 O649 1.267 . A
U651 O665 2.438 . S
U651 O666 2.465 . S
U651 O671 2.420 . S
U651 O672 2.465 . S
U651 O677 2.420 . S
U651 O680 2.438 . S
U651 O681 2.225 . S
U652 O663 2.438 . S
U652 O667 2.420 . S
U652 O668 2.465 . S
U652 O673 2.420 . S
U652 O674 2.465 . S
U652 O678 2.438 . S
U652 O681 2.225 . S
U653 O664 2.438 . S
U653 O669 2.420 . S
U653 O670 2.465 . S
U653 O675 2.420 . S
U653 O676 2.465 . S
U653 O679 2.438 . S
U653 O681 2.225 . S
C654 O666 1.243 . A
C654 O667 1.285 . A
C655 O668 1.243 . A
C655 O669 1.285 . A
C656 O670 1.243 . A
C656 O671 1.285 . A
C657 O672 1.243 . A
C657 O673 1.285 . A
C658 O674 1.243 . A
C658 O675 1.285 . A
C659 O676 1.243 . A
C659 O677 1.285 . A
C660 O663 1.267 . A
C660 O678 1.267 . A
C661 O664 1.267 . A
C661 O679 1.267 . A
C662 O665 1.267 . A
C662 O680 1.267 . A
U682 O696 2.438 . S
U682 O697 2.465 . S
U682 O702 2.420 . S
U682 O703 2.465 . S
U682 O708 2.420 . S
U682 O711 2.438 . S
U682 O712 2.225 . S
U683 O694 2.438 . S
U683 O698 2.420 . S
U683 O699 2.465 . S
U683 O704 2.420 . S
U683 O705 2.465 . S
U683 O709 2.438 . S
U683 O712 2.225 . S
U684 O695 2.438 . S
U684 O700 2.420 . S
U684 O701 2.465 . S
U684 O706 2.420 . S
U684 O707 2.465 . S
U684 O710 2.438 . S
U684 O712 2.225 . S
C685 O697 1.243 . A
C685 O698 1.285 . A
C686 O699 1.243 . A
C686 O700 1.285 . A
C687 O701 1.243 . A
C687 O702 1.285 . A
C688 O703 1.243 . A
C688 O704 1.285 . A
C689 O705 1.243 . A
C689 O706 1.285 . A
C690 O707 1.243 . A
C690 O708 1.285 . A
C691 O694 1.267 . A
C691 O709 1.267 . A
C692 O695 1.267 . A
C692 O710 1.267 . A
C693 O696 1.267 . A
C693 O711 1.267 . A
U713 O727 2.438 . S
U713 O728 2.465 . S
U713 O733 2.420 . S
U713 O734 2.465 . S
U713 O739 2.420 . S
U713 O742 2.438 . S
U713 O743 2.225 . S
U714 O725 2.438 . S
U714 O729 2.420 . S
U714 O730 2.465 . S
U714 O735 2.420 . S
U714 O736 2.465 . S
U714 O740 2.438 . S
U714 O743 2.225 . S
U715 O726 2.438 . S
U715 O731 2.420 . S
U715 O732 2.465 . S
U715 O737 2.420 . S
U715 O738 2.465 . S
U715 O741 2.438 . S
U715 O743 2.225 . S
C716 O728 1.243 . A
C716 O729 1.285 . A
C717 O730 1.243 . A
C717 O731 1.285 . A
C718 O732 1.243 . A
C718 O733 1.285 . A
C719 O734 1.243 . A
C719 O735 1.285 . A
C720 O736 1.243 . A
C720 O737 1.285 . A
C721 O738 1.243 . A
C721 O739 1.285 . A
C722 O725 1.267 . A
C722 O740 1.267 . A
C723 O726 1.267 . A
C723 O741 1.267 . A
C724 O727 1.267 . A
C724 O742 1.267 . A
F744 C745 1.346 . S
C745 C746 1.540 . S
C745 F748 1.357 . S
C746 F747 1.337 . S
C746 F749 1.347 . S
F750 C751 1.346 . S
C751 C752 1.540 . S
C751 F754 1.357 . S
C752 F753 1.337 . S
C752 F755 1.347 . S
F756 C757 1.346 . S
C757 C758 1.540 . S
C757 F760 1.357 . S
C758 F759 1.337 . S
C758 F761 1.347 . S
F762 C763 1.346 . S
C763 C764 1.540 . S
C763 F766 1.357 . S
C764 F765 1.337 . S
C764 F767 1.347 . S
F768 C769 1.346 . S
C769 C770 1.540 . S
C769 F772 1.357 . S
C770 F771 1.337 . S
C770 F773 1.347 . S
F774 C775 1.346 . S
C775 C776 1.540 . S
C775 F778 1.357 . S
C776 F777 1.337 . S
C776 F779 1.347 . S
F780 C781 1.346 . S
C781 C782 1.540 . S
C781 F784 1.357 . S
C782 F783 1.337 . S
C782 F785 1.347 . S
F786 C787 1.346 . S
C787 C788 1.540 . S
C787 F790 1.357 . S
C788 F789 1.337 . S
C788 F791 1.347 . S
F792 C793 1.346 . S
C793 C794 1.540 . S
C793 F796 1.357 . S
C794 F795 1.337 . S
C794 F797 1.347 . S
F798 C799 1.346 . S
C799 C800 1.540 . S
C799 F802 1.357 . S
C800 F801 1.337 . S
C800 F803 1.347 . S
F804 C805 1.346 . S
C805 C806 1.540 . S
C805 F808 1.357 . S
C806 F807 1.337 . S
C806 F809 1.347 . S
F810 C811 1.346 . S
C811 C812 1.540 . S
C811 F814 1.357 . S
C812 F813 1.337 . S
C812 F815 1.347 . S
F816 C817 1.346 . S
C817 C818 1.540 . S
C817 F820 1.357 . S
C818 F819 1.337 . S
C818 F821 1.347 . S
F822 C823 1.346 . S
C823 C824 1.540 . S
C823 F826 1.357 . S
C824 F825 1.337 . S
C824 F827 1.347 . S
F828 C829 1.346 . S
C829 C830 1.540 . S
C829 F832 1.357 . S
C830 F831 1.337 . S
C830 F833 1.347 . S
F834 C835 1.346 . S
C835 C836 1.540 . S
C835 F838 1.357 . S
C836 F837 1.337 . S
C836 F839 1.347 . S
F840 C841 1.346 . S
C841 C842 1.540 . S
C841 F844 1.357 . S
C842 F843 1.337 . S
C842 F845 1.347 . S
F846 C847 1.346 . S
C847 C848 1.540 . S
C847 F850 1.357 . S
C848 F849 1.337 . S
C848 F851 1.347 . S
F852 C853 1.346 . S
C853 C854 1.540 . S
C853 F856 1.357 . S
C854 F855 1.337 . S
C854 F857 1.347 . S
F858 C859 1.346 . S
C859 C860 1.540 . S
C859 F862 1.357 . S
C860 F861 1.337 . S
C860 F863 1.347 . S
F864 C865 1.346 . S
C865 C866 1.540 . S
C865 F868 1.357 . S
C866 F867 1.337 . S
C866 F869 1.347 . S
F870 C871 1.346 . S
C871 C872 1.540 . S
C871 F874 1.357 . S
C872 F873 1.337 . S
C872 F875 1.347 . S
F876 C877 1.346 . S
C877 C878 1.540 . S
C877 F880 1.357 . S
C878 F879 1.337 . S
C878 F881 1.347 . S
F882 C883 1.346 . S
C883 C884 1.540 . S
C883 F886 1.357 . S
C884 F885 1.337 . S
C884 F887 1.347 . S
F888 C889 1.346 . S
C889 C890 1.540 1_455 S
C889 F892 1.357 . S
C890 F891 1.337 . S
C890 F893 1.347 . S
F894 C895 1.346 . S
C895 C896 1.540 1_565 S
C895 F898 1.357 . S
C896 F897 1.337 . S
C896 F899 1.347 . S
F900 C901 1.346 . S
C901 C902 1.540 1_455 S
C901 F904 1.357 . S
C902 F903 1.337 . S
C902 F905 1.347 . S
F906 C907 1.346 . S
C907 C908 1.540 1_554 S
C907 F910 1.357 . S
C908 F909 1.337 . S
C908 F911 1.347 . S
F912 C913 1.346 . S
C913 C914 1.540 1_545 S
C913 F916 1.357 . S
C914 F915 1.337 . S
C914 F917 1.347 . S
F918 C919 1.346 . S
C919 C920 1.540 1_565 S
C919 F922 1.357 . S
C920 F921 1.337 . S
C920 F923 1.347 . S
F924 C925 1.346 . S
C925 C926 1.540 1_655 S
C925 F928 1.357 . S
C926 F927 1.337 . S
C926 F929 1.347 . S
F930 C931 1.346 . S
C931 C932 1.540 1_545 S
C931 F934 1.357 . S
C932 F933 1.337 . S
C932 F935 1.347 . S
F936 C937 1.346 . S
C937 C938 1.540 1_655 S
C937 F940 1.357 . S
C938 F939 1.337 . S
C938 F941 1.347 . S
F942 C943 1.346 . S
C943 C944 1.540 1_554 S
C943 F946 1.357 . S
C944 F945 1.337 . S
C944 F947 1.347 . S
F948 C949 1.346 . S
C949 C950 1.540 1_554 S
C949 F952 1.357 . S
C950 F951 1.337 . S
C950 F953 1.347 . S
F954 C955 1.346 . S
C955 C956 1.540 1_554 S
C955 F958 1.357 . S
C956 F957 1.337 . S
C956 F959 1.347 . S
F960 C961 1.346 . S
C961 C962 1.540 . S
C961 F964 1.357 . S
C962 F963 1.337 . S
C962 F965 1.347 . S
F966 C967 1.346 . S
C967 C968 1.540 . S
C967 F970 1.357 . S
C968 F969 1.337 . S
C968 F971 1.347 . S
F972 C973 1.346 . S
C973 C974 1.540 . S
C973 F976 1.357 . S
C974 F975 1.337 . S
C974 F977 1.347 . S
F978 C979 1.346 . S
C979 C980 1.540 . S
C979 F982 1.357 . S
C980 F981 1.337 . S
C980 F983 1.347 . S
F984 C985 1.346 . S
C985 C986 1.540 . S
C985 F988 1.357 . S
C986 F987 1.337 . S
C986 F989 1.347 . S
F990 C991 1.346 . S
C991 C992 1.540 . S
C991 F994 1.357 . S
C992 F993 1.337 . S
C992 F995 1.347 . S
F996 C997 1.346 . S
C997 C998 1.540 . S
C997 F1000 1.357 . S
C998 F999 1.337 . S
C998 F1001 1.347 . S
F1002 C1003 1.346 . S
C1003 C1004 1.540 . S
C1003 F1006 1.357 . S
C1004 F1005 1.337 . S
C1004 F1007 1.347 . S
F1008 C1009 1.346 . S
C1009 C1010 1.540 . S
C1009 F1012 1.357 . S
C1010 F1011 1.337 . S
C1010 F1013 1.347 . S
F1014 C1015 1.346 . S
C1015 C1016 1.540 . S
C1015 F1018 1.357 . S
C1016 F1017 1.337 . S
C1016 F1019 1.347 . S
F1020 C1021 1.346 . S
C1021 C1022 1.540 . S
C1021 F1024 1.357 . S
C1022 F1023 1.337 . S
C1022 F1025 1.347 . S
F1026 C1027 1.346 . S
C1027 C1028 1.540 . S
C1027 F1030 1.357 . S
C1028 F1029 1.337 . S
C1028 F1031 1.347 . S
C745 C438 1.465 . S
C746 C3 1.718 . S
C751 C34 1.561 . S
C752 C314 1.633 . S
C757 C345 1.567 . S
C758 C65 1.622 . S
C763 C252 1.445 . S
C764 C96 1.749 . S
C769 C376 1.692 . S
C770 C127 1.550 . S
C775 C471 1.526 . S
C776 C158 1.765 . S
C781 C564 1.535 . S
C782 C189 1.763 . S
C787 C658 1.666 . S
C788 C99 1.573 . S
C793 C286 1.582 . S
C794 C130 1.617 . S
C799 C223 1.524 . S
C800 C255 1.700 . S
C805 C685 1.513 . S
C806 C283 1.692 . S
C811 C407 1.628 . S
C812 C716 1.621 . S
C817 C410 1.697 . S
C818 C37 1.537 . S
C823 C655 1.697 . S
C824 C220 1.516 . S
C829 C468 1.719 . S
C830 C595 1.604 . S
C835 C192 1.543 . S
C836 C499 1.759 . S
C841 C502 1.758 . S
C842 C530 1.532 . S
C847 C533 1.756 . S
C848 C561 1.533 . S
C853 C592 1.710 . S
C854 C626 1.614 . S
C859 C623 1.716 . S
C860 C161 1.607 . S
C865 C441 1.452 . S
C866 C68 1.737 . S
C871 C379 1.705 . S
C872 C688 1.513 . S
C877 C317 1.649 . S
C878 C719 1.591 . S
C883 C6 1.577 . S
C884 C348 1.624 . S
C889 C693 1.259 . S
C890 C11 1.084 . S
C895 C104 1.260 . S
C896 C42 1.081 . S
C901 C135 1.258 . S
C902 C73 1.086 . S
C907 C197 1.125 . S
C908 C166 1.209 . S
C913 C724 1.075 . S
C914 C228 1.244 . S
C919 C257 1.304 . S
C920 C412 1.390 . S
C925 C350 1.458 . S
C926 C288 1.219 . S
C931 C319 1.293 . S
C932 C660 1.399 . S
C937 C443 1.335 . S
C938 C381 1.311 . S
C943 C507 1.061 . S
C944 C476 1.241 . S
C949 C538 1.200 . S
C950 C600 1.102 . S
C955 C569 1.065 . S
C956 C631 1.249 . S
C961 C165 1.352 . S
C962 C10 1.454 . S
C967 C41 1.532 . S
C968 C568 1.225 . S
C973 C196 1.356 . S
C974 C72 1.450 . S
C979 C103 1.476 . S
C980 C506 1.332 . S
C985 C134 1.409 . S
C986 C537 1.335 . S
C991 C227 1.545 . S
C992 C475 1.238 . S
C997 C290 1.421 . S
C998 C259 1.339 . S
C1003 C445 1.363 . S
C1004 C321 1.442 . S
C1009 C662 1.424 . S
C1010 C352 1.336 . S
C1015 C383 1.508 . S
C1016 C414 1.261 . S
C1021 C692 1.320 . S
C1022 C599 1.476 . S
C1027 C723 1.191 . S
C1028 C630 1.536 . S
