# Generated by pormake.
# Topology lta, (4)-cn, num edge types: 1
# Building blocks:
#     Node 0, Type 0, BuildingBlock: N599, # of connection points: 7
#     Node 1, Type 0, BuildingBlock: N599, # of connection points: 7
#     Node 2, Type 0, BuildingBlock: N599, # of connection points: 7
#     Node 3, Type 0, BuildingBlock: N599, # of connection points: 7
#     Node 4, Type 0, BuildingBlock: N599, # of connection points: 7
#     Node 5, Type 0, BuildingBlock: N599, # of connection points: 7
#     Node 6, Type 0, BuildingBlock: N599, # of connection points: 7
#     Node 7, Type 0, BuildingBlock: N599, # of connection points: 7
#     Node 8, Type 0, BuildingBlock: N599, # of connection points: 7
#     Node 9, Type 0, BuildingBlock: N599, # of connection points: 7
#     Node 10, Type 0, BuildingBlock: N599, # of connection points: 7
#     Node 11, Type 0, BuildingBlock: N599, # of connection points: 7
#     Node 12, Type 0, BuildingBlock: N599, # of connection points: 7
#     Node 13, Type 0, BuildingBlock: N599, # of connection points: 7
#     Node 14, Type 0, BuildingBlock: N599, # of connection points: 7
#     Node 15, Type 0, BuildingBlock: N599, # of connection points: 7
#     Node 16, Type 0, BuildingBlock: N599, # of connection points: 7
#     Node 17, Type 0, BuildingBlock: N599, # of connection points: 7
#     Node 18, Type 0, BuildingBlock: N599, # of connection points: 7
#     Node 19, Type 0, BuildingBlock: N599, # of connection points: 7
#     Node 20, Type 0, BuildingBlock: N599, # of connection points: 7
#     Node 21, Type 0, BuildingBlock: N599, # of connection points: 7
#     Node 22, Type 0, BuildingBlock: N599, # of connection points: 7
#     Node 23, Type 0, BuildingBlock: N599, # of connection points: 7
#     Edge 24, Type (0, 0), BuildingBlock: E127, # of connection points: 2
#     Edge 25, Type (0, 0), BuildingBlock: E127, # of connection points: 2
#     Edge 26, Type (0, 0), BuildingBlock: E127, # of connection points: 2
#     Edge 27, Type (0, 0), BuildingBlock: E127, # of connection points: 2
#     Edge 28, Type (0, 0), BuildingBlock: E127, # of connection points: 2
#     Edge 29, Type (0, 0), BuildingBlock: E127, # of connection points: 2
#     Edge 30, Type (0, 0), BuildingBlock: E127, # of connection points: 2
#     Edge 31, Type (0, 0), BuildingBlock: E127, # of connection points: 2
#     Edge 32, Type (0, 0), BuildingBlock: E127, # of connection points: 2
#     Edge 33, Type (0, 0), BuildingBlock: E127, # of connection points: 2
#     Edge 34, Type (0, 0), BuildingBlock: E127, # of connection points: 2
#     Edge 35, Type (0, 0), BuildingBlock: E127, # of connection points: 2
#     Edge 36, Type (0, 0), BuildingBlock: E127, # of connection points: 2
#     Edge 37, Type (0, 0), BuildingBlock: E127, # of connection points: 2
#     Edge 38, Type (0, 0), BuildingBlock: E127, # of connection points: 2
#     Edge 39, Type (0, 0), BuildingBlock: E127, # of connection points: 2
#     Edge 40, Type (0, 0), BuildingBlock: E127, # of connection points: 2
#     Edge 41, Type (0, 0), BuildingBlock: E127, # of connection points: 2
#     Edge 42, Type (0, 0), BuildingBlock: E127, # of connection points: 2
#     Edge 43, Type (0, 0), BuildingBlock: E127, # of connection points: 2
#     Edge 44, Type (0, 0), BuildingBlock: E127, # of connection points: 2
#     Edge 45, Type (0, 0), BuildingBlock: E127, # of connection points: 2
#     Edge 46, Type (0, 0), BuildingBlock: E127, # of connection points: 2
#     Edge 47, Type (0, 0), BuildingBlock: E127, # of connection points: 2
#     Edge 48, Type (0, 0), BuildingBlock: E127, # of connection points: 2
#     Edge 49, Type (0, 0), BuildingBlock: E127, # of connection points: 2
#     Edge 50, Type (0, 0), BuildingBlock: E127, # of connection points: 2
#     Edge 51, Type (0, 0), BuildingBlock: E127, # of connection points: 2
#     Edge 52, Type (0, 0), BuildingBlock: E127, # of connection points: 2
#     Edge 53, Type (0, 0), BuildingBlock: E127, # of connection points: 2
#     Edge 54, Type (0, 0), BuildingBlock: E127, # of connection points: 2
#     Edge 55, Type (0, 0), BuildingBlock: E127, # of connection points: 2
#     Edge 56, Type (0, 0), BuildingBlock: E127, # of connection points: 2
#     Edge 57, Type (0, 0), BuildingBlock: E127, # of connection points: 2
#     Edge 58, Type (0, 0), BuildingBlock: E127, # of connection points: 2
#     Edge 59, Type (0, 0), BuildingBlock: E127, # of connection points: 2
#     Edge 60, Type (0, 0), BuildingBlock: E127, # of connection points: 2
#     Edge 61, Type (0, 0), BuildingBlock: E127, # of connection points: 2
#     Edge 62, Type (0, 0), BuildingBlock: E127, # of connection points: 2
#     Edge 63, Type (0, 0), BuildingBlock: E127, # of connection points: 2
#     Edge 64, Type (0, 0), BuildingBlock: E127, # of connection points: 2
#     Edge 65, Type (0, 0), BuildingBlock: E127, # of connection points: 2
#     Edge 66, Type (0, 0), BuildingBlock: E127, # of connection points: 2
#     Edge 67, Type (0, 0), BuildingBlock: E127, # of connection points: 2
#     Edge 68, Type (0, 0), BuildingBlock: E127, # of connection points: 2
#     Edge 69, Type (0, 0), BuildingBlock: E127, # of connection points: 2
#     Edge 70, Type (0, 0), BuildingBlock: E127, # of connection points: 2
#     Edge 71, Type (0, 0), BuildingBlock: E127, # of connection points: 2
# Relax obj value: 0.158
# Max RMSD: 0.195
# Mean RMSD: 0.195
data_lta+N599+E127
_symmetry_space_group_name_H-M    P1
_symmetry_Int_Tables_number       1
_symmetry_cell_setting            triclinic
loop_
_symmetry_equiv_pos_as_xyz
'x, y, z'
_cell_length_a     46.500
_cell_length_b     46.500
_cell_length_c     46.500
_cell_angle_alpha  90.000
_cell_angle_beta   90.000
_cell_angle_gamma  90.000
loop_
_atom_site_label
_atom_site_type_symbol
_atom_site_fract_x
_atom_site_fract_y
_atom_site_fract_z
_atom_type_partial_charge
C0 C 0.87550 0.43259 0.72016 0.00000
C1 C 0.94704 0.50036 0.67789 0.00000
Zn2 Zn 0.82776 0.45889 0.68192 0.00000
Zn3 Zn 0.89037 0.48548 0.69446 0.00000
Zn4 Zn 0.85624 0.49165 0.63075 0.00000
Zn5 Zn 0.83463 0.52264 0.68671 0.00000
O6 O 0.80221 0.46810 0.71330 0.00000
O7 O 0.79965 0.51679 0.70839 0.00000
C8 C 0.84555 0.55496 0.63850 0.00000
C9 C 0.79280 0.49285 0.63216 0.00000
C10 C 0.79198 0.49236 0.71967 0.00000
O11 O 0.95559 0.49418 0.70356 0.00000
O12 O 0.92140 0.49640 0.66911 0.00000
O13 O 0.86184 0.53688 0.62957 0.00000
O14 O 0.82812 0.55369 0.65926 0.00000
O15 O 0.85817 0.54259 0.71728 0.00000
O16 O 0.89046 0.51057 0.72807 0.00000
C17 C 0.83977 0.42701 0.63181 0.00000
O18 O 0.85460 0.48993 0.67352 0.00000
O19 O 0.89694 0.44781 0.71187 0.00000
O20 O 0.85066 0.43512 0.71123 0.00000
O21 O 0.81597 0.49772 0.61778 0.00000
O22 O 0.79438 0.47885 0.65452 0.00000
H23 H 0.94200 0.49670 0.71517 0.00000
O24 O 0.85312 0.44671 0.62361 0.00000
O25 O 0.82541 0.42611 0.65661 0.00000
C26 C 0.87905 0.53363 0.73231 0.00000
C27 C 0.56741 0.12450 0.27984 0.00000
C28 C 0.49964 0.05296 0.32211 0.00000
Zn29 Zn 0.54111 0.17224 0.31808 0.00000
Zn30 Zn 0.51452 0.10963 0.30554 0.00000
Zn31 Zn 0.50835 0.14376 0.36925 0.00000
Zn32 Zn 0.47736 0.16537 0.31329 0.00000
O33 O 0.53190 0.19779 0.28670 0.00000
O34 O 0.48321 0.20035 0.29161 0.00000
C35 C 0.44504 0.15445 0.36150 0.00000
C36 C 0.50715 0.20720 0.36784 0.00000
C37 C 0.50764 0.20802 0.28033 0.00000
O38 O 0.50582 0.04441 0.29644 0.00000
O39 O 0.50360 0.07860 0.33089 0.00000
O40 O 0.46312 0.13816 0.37043 0.00000
O41 O 0.44631 0.17188 0.34074 0.00000
O42 O 0.45741 0.14183 0.28272 0.00000
O43 O 0.48943 0.10954 0.27193 0.00000
C44 C 0.57299 0.16023 0.36819 0.00000
O45 O 0.51007 0.14540 0.32648 0.00000
O46 O 0.55219 0.10306 0.28813 0.00000
O47 O 0.56488 0.14934 0.28877 0.00000
O48 O 0.50228 0.18403 0.38222 0.00000
O49 O 0.52115 0.20562 0.34548 0.00000
H50 H 0.50330 0.05800 0.28483 0.00000
O51 O 0.55329 0.14688 0.37639 0.00000
O52 O 0.57389 0.17459 0.34339 0.00000
C53 C 0.46637 0.12095 0.26769 0.00000
C54 C 0.87550 0.56741 0.27984 0.00000
C55 C 0.94704 0.49964 0.32211 0.00000
Zn56 Zn 0.82776 0.54111 0.31808 0.00000
Zn57 Zn 0.89037 0.51452 0.30554 0.00000
Zn58 Zn 0.85624 0.50835 0.36925 0.00000
Zn59 Zn 0.83463 0.47736 0.31329 0.00000
O60 O 0.80221 0.53190 0.28670 0.00000
O61 O 0.79965 0.48321 0.29161 0.00000
C62 C 0.84555 0.44504 0.36150 0.00000
C63 C 0.79280 0.50715 0.36784 0.00000
C64 C 0.79198 0.50764 0.28033 0.00000
O65 O 0.95559 0.50582 0.29644 0.00000
O66 O 0.92140 0.50360 0.33089 0.00000
O67 O 0.86184 0.46312 0.37043 0.00000
O68 O 0.82812 0.44631 0.34074 0.00000
O69 O 0.85817 0.45741 0.28272 0.00000
O70 O 0.89046 0.48943 0.27193 0.00000
C71 C 0.83977 0.57299 0.36819 0.00000
O72 O 0.85460 0.51007 0.32648 0.00000
O73 O 0.89694 0.55219 0.28813 0.00000
O74 O 0.85066 0.56488 0.28877 0.00000
O75 O 0.81597 0.50228 0.38222 0.00000
O76 O 0.79438 0.52115 0.34548 0.00000
H77 H 0.94200 0.50330 0.28483 0.00000
O78 O 0.85312 0.55329 0.37639 0.00000
O79 O 0.82541 0.57389 0.34339 0.00000
C80 C 0.87905 0.46637 0.26769 0.00000
C81 C 0.43259 0.87550 0.27984 0.00000
C82 C 0.50036 0.94704 0.32211 0.00000
Zn83 Zn 0.45889 0.82776 0.31808 0.00000
Zn84 Zn 0.48548 0.89037 0.30554 0.00000
Zn85 Zn 0.49165 0.85624 0.36925 0.00000
Zn86 Zn 0.52264 0.83463 0.31329 0.00000
O87 O 0.46810 0.80221 0.28670 0.00000
O88 O 0.51679 0.79965 0.29161 0.00000
C89 C 0.55496 0.84555 0.36150 0.00000
C90 C 0.49285 0.79280 0.36784 0.00000
C91 C 0.49236 0.79198 0.28033 0.00000
O92 O 0.49418 0.95559 0.29644 0.00000
O93 O 0.49640 0.92140 0.33089 0.00000
O94 O 0.53688 0.86184 0.37043 0.00000
O95 O 0.55369 0.82812 0.34074 0.00000
O96 O 0.54259 0.85817 0.28272 0.00000
O97 O 0.51057 0.89046 0.27193 0.00000
C98 C 0.42701 0.83977 0.36819 0.00000
O99 O 0.48993 0.85460 0.32648 0.00000
O100 O 0.44781 0.89694 0.28813 0.00000
O101 O 0.43512 0.85066 0.28877 0.00000
O102 O 0.49772 0.81597 0.38222 0.00000
O103 O 0.47885 0.79438 0.34548 0.00000
H104 H 0.49670 0.94200 0.28483 0.00000
O105 O 0.44671 0.85312 0.37639 0.00000
O106 O 0.42611 0.82541 0.34339 0.00000
C107 C 0.53363 0.87905 0.26769 0.00000
C108 C 0.12450 0.43259 0.27984 0.00000
C109 C 0.05296 0.50036 0.32211 0.00000
Zn110 Zn 0.17224 0.45889 0.31808 0.00000
Zn111 Zn 0.10963 0.48548 0.30554 0.00000
Zn112 Zn 0.14376 0.49165 0.36925 0.00000
Zn113 Zn 0.16537 0.52264 0.31329 0.00000
O114 O 0.19779 0.46810 0.28670 0.00000
O115 O 0.20035 0.51679 0.29161 0.00000
C116 C 0.15445 0.55496 0.36150 0.00000
C117 C 0.20720 0.49285 0.36784 0.00000
C118 C 0.20802 0.49236 0.28033 0.00000
O119 O 0.04441 0.49418 0.29644 0.00000
O120 O 0.07860 0.49640 0.33089 0.00000
O121 O 0.13816 0.53688 0.37043 0.00000
O122 O 0.17188 0.55369 0.34074 0.00000
O123 O 0.14183 0.54259 0.28272 0.00000
O124 O 0.10954 0.51057 0.27193 0.00000
C125 C 0.16023 0.42701 0.36819 0.00000
O126 O 0.14540 0.48993 0.32648 0.00000
O127 O 0.10306 0.44781 0.28813 0.00000
O128 O 0.14934 0.43512 0.28877 0.00000
O129 O 0.18403 0.49772 0.38222 0.00000
O130 O 0.20562 0.47885 0.34548 0.00000
H131 H 0.05800 0.49670 0.28483 0.00000
O132 O 0.14688 0.44671 0.37639 0.00000
O133 O 0.17459 0.42611 0.34339 0.00000
C134 C 0.12095 0.53363 0.26769 0.00000
C135 C 0.72016 0.56741 0.87550 0.00000
C136 C 0.67789 0.49964 0.94704 0.00000
Zn137 Zn 0.68192 0.54111 0.82776 0.00000
Zn138 Zn 0.69446 0.51452 0.89037 0.00000
Zn139 Zn 0.63075 0.50835 0.85624 0.00000
Zn140 Zn 0.68671 0.47736 0.83463 0.00000
O141 O 0.71330 0.53190 0.80221 0.00000
O142 O 0.70839 0.48321 0.79965 0.00000
C143 C 0.63850 0.44504 0.84555 0.00000
C144 C 0.63216 0.50715 0.79280 0.00000
C145 C 0.71967 0.50764 0.79198 0.00000
O146 O 0.70356 0.50582 0.95559 0.00000
O147 O 0.66911 0.50360 0.92140 0.00000
O148 O 0.62957 0.46312 0.86184 0.00000
O149 O 0.65926 0.44631 0.82812 0.00000
O150 O 0.71728 0.45741 0.85817 0.00000
O151 O 0.72807 0.48943 0.89046 0.00000
C152 C 0.63181 0.57299 0.83977 0.00000
O153 O 0.67352 0.51007 0.85460 0.00000
O154 O 0.71187 0.55219 0.89694 0.00000
O155 O 0.71123 0.56488 0.85066 0.00000
O156 O 0.61778 0.50228 0.81597 0.00000
O157 O 0.65452 0.52115 0.79438 0.00000
H158 H 0.71517 0.50330 0.94200 0.00000
O159 O 0.62361 0.55329 0.85312 0.00000
O160 O 0.65661 0.57389 0.82541 0.00000
C161 C 0.73231 0.46637 0.87905 0.00000
C162 C 0.72016 0.43259 0.12450 0.00000
C163 C 0.67789 0.50036 0.05296 0.00000
Zn164 Zn 0.68192 0.45889 0.17224 0.00000
Zn165 Zn 0.69446 0.48548 0.10963 0.00000
Zn166 Zn 0.63075 0.49165 0.14376 0.00000
Zn167 Zn 0.68671 0.52264 0.16537 0.00000
O168 O 0.71330 0.46810 0.19779 0.00000
O169 O 0.70839 0.51679 0.20035 0.00000
C170 C 0.63850 0.55496 0.15445 0.00000
C171 C 0.63216 0.49285 0.20720 0.00000
C172 C 0.71967 0.49236 0.20802 0.00000
O173 O 0.70356 0.49418 0.04441 0.00000
O174 O 0.66911 0.49640 0.07860 0.00000
O175 O 0.62957 0.53688 0.13816 0.00000
O176 O 0.65926 0.55369 0.17188 0.00000
O177 O 0.71728 0.54259 0.14183 0.00000
O178 O 0.72807 0.51057 0.10954 0.00000
C179 C 0.63181 0.42701 0.16023 0.00000
O180 O 0.67352 0.48993 0.14540 0.00000
O181 O 0.71187 0.44781 0.10306 0.00000
O182 O 0.71123 0.43512 0.14934 0.00000
O183 O 0.61778 0.49772 0.18403 0.00000
O184 O 0.65452 0.47885 0.20562 0.00000
H185 H 0.71517 0.49670 0.05800 0.00000
O186 O 0.62361 0.44671 0.14688 0.00000
O187 O 0.65661 0.42611 0.17459 0.00000
C188 C 0.73231 0.53363 0.12095 0.00000
C189 C 0.56741 0.87550 0.72016 0.00000
C190 C 0.49964 0.94704 0.67789 0.00000
Zn191 Zn 0.54111 0.82776 0.68192 0.00000
Zn192 Zn 0.51452 0.89037 0.69446 0.00000
Zn193 Zn 0.50835 0.85624 0.63075 0.00000
Zn194 Zn 0.47736 0.83463 0.68671 0.00000
O195 O 0.53190 0.80221 0.71330 0.00000
O196 O 0.48321 0.79965 0.70839 0.00000
C197 C 0.44504 0.84555 0.63850 0.00000
C198 C 0.50715 0.79280 0.63216 0.00000
C199 C 0.50764 0.79198 0.71967 0.00000
O200 O 0.50582 0.95559 0.70356 0.00000
O201 O 0.50360 0.92140 0.66911 0.00000
O202 O 0.46312 0.86184 0.62957 0.00000
O203 O 0.44631 0.82812 0.65926 0.00000
O204 O 0.45741 0.85817 0.71728 0.00000
O205 O 0.48943 0.89046 0.72807 0.00000
C206 C 0.57299 0.83977 0.63181 0.00000
O207 O 0.51007 0.85460 0.67352 0.00000
O208 O 0.55219 0.89694 0.71187 0.00000
O209 O 0.56488 0.85066 0.71123 0.00000
O210 O 0.50228 0.81597 0.61778 0.00000
O211 O 0.52115 0.79438 0.65452 0.00000
H212 H 0.50330 0.94200 0.71517 0.00000
O213 O 0.55329 0.85312 0.62361 0.00000
O214 O 0.57389 0.82541 0.65661 0.00000
C215 C 0.46637 0.87905 0.73231 0.00000
C216 C 0.27984 0.87550 0.56741 0.00000
C217 C 0.32211 0.94704 0.49964 0.00000
Zn218 Zn 0.31808 0.82776 0.54111 0.00000
Zn219 Zn 0.30554 0.89037 0.51452 0.00000
Zn220 Zn 0.36925 0.85624 0.50835 0.00000
Zn221 Zn 0.31329 0.83463 0.47736 0.00000
O222 O 0.28670 0.80221 0.53190 0.00000
O223 O 0.29161 0.79965 0.48321 0.00000
C224 C 0.36150 0.84555 0.44504 0.00000
C225 C 0.36784 0.79280 0.50715 0.00000
C226 C 0.28033 0.79198 0.50764 0.00000
O227 O 0.29644 0.95559 0.50582 0.00000
O228 O 0.33089 0.92140 0.50360 0.00000
O229 O 0.37043 0.86184 0.46312 0.00000
O230 O 0.34074 0.82812 0.44631 0.00000
O231 O 0.28272 0.85817 0.45741 0.00000
O232 O 0.27193 0.89046 0.48943 0.00000
C233 C 0.36819 0.83977 0.57299 0.00000
O234 O 0.32648 0.85460 0.51007 0.00000
O235 O 0.28813 0.89694 0.55219 0.00000
O236 O 0.28877 0.85066 0.56488 0.00000
O237 O 0.38222 0.81597 0.50228 0.00000
O238 O 0.34548 0.79438 0.52115 0.00000
H239 H 0.28483 0.94200 0.50330 0.00000
O240 O 0.37639 0.85312 0.55329 0.00000
O241 O 0.34339 0.82541 0.57389 0.00000
C242 C 0.26769 0.87905 0.46637 0.00000
C243 C 0.12450 0.72016 0.43259 0.00000
C244 C 0.05296 0.67789 0.50036 0.00000
Zn245 Zn 0.17224 0.68192 0.45889 0.00000
Zn246 Zn 0.10963 0.69446 0.48548 0.00000
Zn247 Zn 0.14376 0.63075 0.49165 0.00000
Zn248 Zn 0.16537 0.68671 0.52264 0.00000
O249 O 0.19779 0.71330 0.46810 0.00000
O250 O 0.20035 0.70839 0.51679 0.00000
C251 C 0.15445 0.63850 0.55496 0.00000
C252 C 0.20720 0.63216 0.49285 0.00000
C253 C 0.20802 0.71967 0.49236 0.00000
O254 O 0.04441 0.70356 0.49418 0.00000
O255 O 0.07860 0.66911 0.49640 0.00000
O256 O 0.13816 0.62957 0.53688 0.00000
O257 O 0.17188 0.65926 0.55369 0.00000
O258 O 0.14183 0.71728 0.54259 0.00000
O259 O 0.10954 0.72807 0.51057 0.00000
C260 C 0.16023 0.63181 0.42701 0.00000
O261 O 0.14540 0.67352 0.48993 0.00000
O262 O 0.10306 0.71187 0.44781 0.00000
O263 O 0.14934 0.71123 0.43512 0.00000
O264 O 0.18403 0.61778 0.49772 0.00000
O265 O 0.20562 0.65452 0.47885 0.00000
H266 H 0.05800 0.71517 0.49670 0.00000
O267 O 0.14688 0.62361 0.44671 0.00000
O268 O 0.17459 0.65661 0.42611 0.00000
C269 C 0.12095 0.73231 0.53363 0.00000
C270 C 0.72016 0.12450 0.56741 0.00000
C271 C 0.67789 0.05296 0.49964 0.00000
Zn272 Zn 0.68192 0.17224 0.54111 0.00000
Zn273 Zn 0.69446 0.10963 0.51452 0.00000
Zn274 Zn 0.63075 0.14376 0.50835 0.00000
Zn275 Zn 0.68671 0.16537 0.47736 0.00000
O276 O 0.71330 0.19779 0.53190 0.00000
O277 O 0.70839 0.20035 0.48321 0.00000
C278 C 0.63850 0.15445 0.44504 0.00000
C279 C 0.63216 0.20720 0.50715 0.00000
C280 C 0.71967 0.20802 0.50764 0.00000
O281 O 0.70356 0.04441 0.50582 0.00000
O282 O 0.66911 0.07860 0.50360 0.00000
O283 O 0.62957 0.13816 0.46312 0.00000
O284 O 0.65926 0.17188 0.44631 0.00000
O285 O 0.71728 0.14183 0.45741 0.00000
O286 O 0.72807 0.10954 0.48943 0.00000
C287 C 0.63181 0.16023 0.57299 0.00000
O288 O 0.67352 0.14540 0.51007 0.00000
O289 O 0.71187 0.10306 0.55219 0.00000
O290 O 0.71123 0.14934 0.56488 0.00000
O291 O 0.61778 0.18403 0.50228 0.00000
O292 O 0.65452 0.20562 0.52115 0.00000
H293 H 0.71517 0.05800 0.50330 0.00000
O294 O 0.62361 0.14688 0.55329 0.00000
O295 O 0.65661 0.17459 0.57389 0.00000
C296 C 0.73231 0.12095 0.46637 0.00000
C297 C 0.87550 0.72016 0.56741 0.00000
C298 C 0.94704 0.67789 0.49964 0.00000
Zn299 Zn 0.82776 0.68192 0.54111 0.00000
Zn300 Zn 0.89037 0.69446 0.51452 0.00000
Zn301 Zn 0.85624 0.63075 0.50835 0.00000
Zn302 Zn 0.83463 0.68671 0.47736 0.00000
O303 O 0.80221 0.71330 0.53190 0.00000
O304 O 0.79965 0.70839 0.48321 0.00000
C305 C 0.84555 0.63850 0.44504 0.00000
C306 C 0.79280 0.63216 0.50715 0.00000
C307 C 0.79198 0.71967 0.50764 0.00000
O308 O 0.95559 0.70356 0.50582 0.00000
O309 O 0.92140 0.66911 0.50360 0.00000
O310 O 0.86184 0.62957 0.46312 0.00000
O311 O 0.82812 0.65926 0.44631 0.00000
O312 O 0.85817 0.71728 0.45741 0.00000
O313 O 0.89046 0.72807 0.48943 0.00000
C314 C 0.83977 0.63181 0.57299 0.00000
O315 O 0.85460 0.67352 0.51007 0.00000
O316 O 0.89694 0.71187 0.55219 0.00000
O317 O 0.85066 0.71123 0.56488 0.00000
O318 O 0.81597 0.61778 0.50228 0.00000
O319 O 0.79438 0.65452 0.52115 0.00000
H320 H 0.94200 0.71517 0.50330 0.00000
O321 O 0.85312 0.62361 0.55329 0.00000
O322 O 0.82541 0.65661 0.57389 0.00000
C323 C 0.87905 0.73231 0.46637 0.00000
C324 C 0.12450 0.27984 0.56741 0.00000
C325 C 0.05296 0.32211 0.49964 0.00000
Zn326 Zn 0.17224 0.31808 0.54111 0.00000
Zn327 Zn 0.10963 0.30554 0.51452 0.00000
Zn328 Zn 0.14376 0.36925 0.50835 0.00000
Zn329 Zn 0.16537 0.31329 0.47736 0.00000
O330 O 0.19779 0.28670 0.53190 0.00000
O331 O 0.20035 0.29161 0.48321 0.00000
C332 C 0.15445 0.36150 0.44504 0.00000
C333 C 0.20720 0.36784 0.50715 0.00000
C334 C 0.20802 0.28033 0.50764 0.00000
O335 O 0.04441 0.29644 0.50582 0.00000
O336 O 0.07860 0.33089 0.50360 0.00000
O337 O 0.13816 0.37043 0.46312 0.00000
O338 O 0.17188 0.34074 0.44631 0.00000
O339 O 0.14183 0.28272 0.45741 0.00000
O340 O 0.10954 0.27193 0.48943 0.00000
C341 C 0.16023 0.36819 0.57299 0.00000
O342 O 0.14540 0.32648 0.51007 0.00000
O343 O 0.10306 0.28813 0.55219 0.00000
O344 O 0.14934 0.28877 0.56488 0.00000
O345 O 0.18403 0.38222 0.50228 0.00000
O346 O 0.20562 0.34548 0.52115 0.00000
H347 H 0.05800 0.28483 0.50330 0.00000
O348 O 0.14688 0.37639 0.55329 0.00000
O349 O 0.17459 0.34339 0.57389 0.00000
C350 C 0.12095 0.26769 0.46637 0.00000
C351 C 0.27984 0.12450 0.43259 0.00000
C352 C 0.32211 0.05296 0.50036 0.00000
Zn353 Zn 0.31808 0.17224 0.45889 0.00000
Zn354 Zn 0.30554 0.10963 0.48548 0.00000
Zn355 Zn 0.36925 0.14376 0.49165 0.00000
Zn356 Zn 0.31329 0.16537 0.52264 0.00000
O357 O 0.28670 0.19779 0.46810 0.00000
O358 O 0.29161 0.20035 0.51679 0.00000
C359 C 0.36150 0.15445 0.55496 0.00000
C360 C 0.36784 0.20720 0.49285 0.00000
C361 C 0.28033 0.20802 0.49236 0.00000
O362 O 0.29644 0.04441 0.49418 0.00000
O363 O 0.33089 0.07860 0.49640 0.00000
O364 O 0.37043 0.13816 0.53688 0.00000
O365 O 0.34074 0.17188 0.55369 0.00000
O366 O 0.28272 0.14183 0.54259 0.00000
O367 O 0.27193 0.10954 0.51057 0.00000
C368 C 0.36819 0.16023 0.42701 0.00000
O369 O 0.32648 0.14540 0.48993 0.00000
O370 O 0.28813 0.10306 0.44781 0.00000
O371 O 0.28877 0.14934 0.43512 0.00000
O372 O 0.38222 0.18403 0.49772 0.00000
O373 O 0.34548 0.20562 0.47885 0.00000
H374 H 0.28483 0.05800 0.49670 0.00000
O375 O 0.37639 0.14688 0.44671 0.00000
O376 O 0.34339 0.17459 0.42611 0.00000
C377 C 0.26769 0.12095 0.53363 0.00000
C378 C 0.87550 0.27984 0.43259 0.00000
C379 C 0.94704 0.32211 0.50036 0.00000
Zn380 Zn 0.82776 0.31808 0.45889 0.00000
Zn381 Zn 0.89037 0.30554 0.48548 0.00000
Zn382 Zn 0.85624 0.36925 0.49165 0.00000
Zn383 Zn 0.83463 0.31329 0.52264 0.00000
O384 O 0.80221 0.28670 0.46810 0.00000
O385 O 0.79965 0.29161 0.51679 0.00000
C386 C 0.84555 0.36150 0.55496 0.00000
C387 C 0.79280 0.36784 0.49285 0.00000
C388 C 0.79198 0.28033 0.49236 0.00000
O389 O 0.95559 0.29644 0.49418 0.00000
O390 O 0.92140 0.33089 0.49640 0.00000
O391 O 0.86184 0.37043 0.53688 0.00000
O392 O 0.82812 0.34074 0.55369 0.00000
O393 O 0.85817 0.28272 0.54259 0.00000
O394 O 0.89046 0.27193 0.51057 0.00000
C395 C 0.83977 0.36819 0.42701 0.00000
O396 O 0.85460 0.32648 0.48993 0.00000
O397 O 0.89694 0.28813 0.44781 0.00000
O398 O 0.85066 0.28877 0.43512 0.00000
O399 O 0.81597 0.38222 0.49772 0.00000
O400 O 0.79438 0.34548 0.47885 0.00000
H401 H 0.94200 0.28483 0.49670 0.00000
O402 O 0.85312 0.37639 0.44671 0.00000
O403 O 0.82541 0.34339 0.42611 0.00000
C404 C 0.87905 0.26769 0.53363 0.00000
C405 C 0.43259 0.72016 0.87550 0.00000
C406 C 0.50036 0.67789 0.94704 0.00000
Zn407 Zn 0.45889 0.68192 0.82776 0.00000
Zn408 Zn 0.48548 0.69446 0.89037 0.00000
Zn409 Zn 0.49165 0.63075 0.85624 0.00000
Zn410 Zn 0.52264 0.68671 0.83463 0.00000
O411 O 0.46810 0.71330 0.80221 0.00000
O412 O 0.51679 0.70839 0.79965 0.00000
C413 C 0.55496 0.63850 0.84555 0.00000
C414 C 0.49285 0.63216 0.79280 0.00000
C415 C 0.49236 0.71967 0.79198 0.00000
O416 O 0.49418 0.70356 0.95559 0.00000
O417 O 0.49640 0.66911 0.92140 0.00000
O418 O 0.53688 0.62957 0.86184 0.00000
O419 O 0.55369 0.65926 0.82812 0.00000
O420 O 0.54259 0.71728 0.85817 0.00000
O421 O 0.51057 0.72807 0.89046 0.00000
C422 C 0.42701 0.63181 0.83977 0.00000
O423 O 0.48993 0.67352 0.85460 0.00000
O424 O 0.44781 0.71187 0.89694 0.00000
O425 O 0.43512 0.71123 0.85066 0.00000
O426 O 0.49772 0.61778 0.81597 0.00000
O427 O 0.47885 0.65452 0.79438 0.00000
H428 H 0.49670 0.71517 0.94200 0.00000
O429 O 0.44671 0.62361 0.85312 0.00000
O430 O 0.42611 0.65661 0.82541 0.00000
C431 C 0.53363 0.73231 0.87905 0.00000
C432 C 0.56741 0.72016 0.12450 0.00000
C433 C 0.49964 0.67789 0.05296 0.00000
Zn434 Zn 0.54111 0.68192 0.17224 0.00000
Zn435 Zn 0.51452 0.69446 0.10963 0.00000
Zn436 Zn 0.50835 0.63075 0.14376 0.00000
Zn437 Zn 0.47736 0.68671 0.16537 0.00000
O438 O 0.53190 0.71330 0.19779 0.00000
O439 O 0.48321 0.70839 0.20035 0.00000
C440 C 0.44504 0.63850 0.15445 0.00000
C441 C 0.50715 0.63216 0.20720 0.00000
C442 C 0.50764 0.71967 0.20802 0.00000
O443 O 0.50582 0.70356 0.04441 0.00000
O444 O 0.50360 0.66911 0.07860 0.00000
O445 O 0.46312 0.62957 0.13816 0.00000
O446 O 0.44631 0.65926 0.17188 0.00000
O447 O 0.45741 0.71728 0.14183 0.00000
O448 O 0.48943 0.72807 0.10954 0.00000
C449 C 0.57299 0.63181 0.16023 0.00000
O450 O 0.51007 0.67352 0.14540 0.00000
O451 O 0.55219 0.71187 0.10306 0.00000
O452 O 0.56488 0.71123 0.14934 0.00000
O453 O 0.50228 0.61778 0.18403 0.00000
O454 O 0.52115 0.65452 0.20562 0.00000
H455 H 0.50330 0.71517 0.05800 0.00000
O456 O 0.55329 0.62361 0.14688 0.00000
O457 O 0.57389 0.65661 0.17459 0.00000
C458 C 0.46637 0.73231 0.12095 0.00000
C459 C 0.27984 0.56741 0.12450 0.00000
C460 C 0.32211 0.49964 0.05296 0.00000
Zn461 Zn 0.31808 0.54111 0.17224 0.00000
Zn462 Zn 0.30554 0.51452 0.10963 0.00000
Zn463 Zn 0.36925 0.50835 0.14376 0.00000
Zn464 Zn 0.31329 0.47736 0.16537 0.00000
O465 O 0.28670 0.53190 0.19779 0.00000
O466 O 0.29161 0.48321 0.20035 0.00000
C467 C 0.36150 0.44504 0.15445 0.00000
C468 C 0.36784 0.50715 0.20720 0.00000
C469 C 0.28033 0.50764 0.20802 0.00000
O470 O 0.29644 0.50582 0.04441 0.00000
O471 O 0.33089 0.50360 0.07860 0.00000
O472 O 0.37043 0.46312 0.13816 0.00000
O473 O 0.34074 0.44631 0.17188 0.00000
O474 O 0.28272 0.45741 0.14183 0.00000
O475 O 0.27193 0.48943 0.10954 0.00000
C476 C 0.36819 0.57299 0.16023 0.00000
O477 O 0.32648 0.51007 0.14540 0.00000
O478 O 0.28813 0.55219 0.10306 0.00000
O479 O 0.28877 0.56488 0.14934 0.00000
O480 O 0.38222 0.50228 0.18403 0.00000
O481 O 0.34548 0.52115 0.20562 0.00000
H482 H 0.28483 0.50330 0.05800 0.00000
O483 O 0.37639 0.55329 0.14688 0.00000
O484 O 0.34339 0.57389 0.17459 0.00000
C485 C 0.26769 0.46637 0.12095 0.00000
C486 C 0.43259 0.27984 0.12450 0.00000
C487 C 0.50036 0.32211 0.05296 0.00000
Zn488 Zn 0.45889 0.31808 0.17224 0.00000
Zn489 Zn 0.48548 0.30554 0.10963 0.00000
Zn490 Zn 0.49165 0.36925 0.14376 0.00000
Zn491 Zn 0.52264 0.31329 0.16537 0.00000
O492 O 0.46810 0.28670 0.19779 0.00000
O493 O 0.51679 0.29161 0.20035 0.00000
C494 C 0.55496 0.36150 0.15445 0.00000
C495 C 0.49285 0.36784 0.20720 0.00000
C496 C 0.49236 0.28033 0.20802 0.00000
O497 O 0.49418 0.29644 0.04441 0.00000
O498 O 0.49640 0.33089 0.07860 0.00000
O499 O 0.53688 0.37043 0.13816 0.00000
O500 O 0.55369 0.34074 0.17188 0.00000
O501 O 0.54259 0.28272 0.14183 0.00000
O502 O 0.51057 0.27193 0.10954 0.00000
C503 C 0.42701 0.36819 0.16023 0.00000
O504 O 0.48993 0.32648 0.14540 0.00000
O505 O 0.44781 0.28813 0.10306 0.00000
O506 O 0.43512 0.28877 0.14934 0.00000
O507 O 0.49772 0.38222 0.18403 0.00000
O508 O 0.47885 0.34548 0.20562 0.00000
H509 H 0.49670 0.28483 0.05800 0.00000
O510 O 0.44671 0.37639 0.14688 0.00000
O511 O 0.42611 0.34339 0.17459 0.00000
C512 C 0.53363 0.26769 0.12095 0.00000
C513 C 0.27984 0.43259 0.87550 0.00000
C514 C 0.32211 0.50036 0.94704 0.00000
Zn515 Zn 0.31808 0.45889 0.82776 0.00000
Zn516 Zn 0.30554 0.48548 0.89037 0.00000
Zn517 Zn 0.36925 0.49165 0.85624 0.00000
Zn518 Zn 0.31329 0.52264 0.83463 0.00000
O519 O 0.28670 0.46810 0.80221 0.00000
O520 O 0.29161 0.51679 0.79965 0.00000
C521 C 0.36150 0.55496 0.84555 0.00000
C522 C 0.36784 0.49285 0.79280 0.00000
C523 C 0.28033 0.49236 0.79198 0.00000
O524 O 0.29644 0.49418 0.95559 0.00000
O525 O 0.33089 0.49640 0.92140 0.00000
O526 O 0.37043 0.53688 0.86184 0.00000
O527 O 0.34074 0.55369 0.82812 0.00000
O528 O 0.28272 0.54259 0.85817 0.00000
O529 O 0.27193 0.51057 0.89046 0.00000
C530 C 0.36819 0.42701 0.83977 0.00000
O531 O 0.32648 0.48993 0.85460 0.00000
O532 O 0.28813 0.44781 0.89694 0.00000
O533 O 0.28877 0.43512 0.85066 0.00000
O534 O 0.38222 0.49772 0.81597 0.00000
O535 O 0.34548 0.47885 0.79438 0.00000
H536 H 0.28483 0.49670 0.94200 0.00000
O537 O 0.37639 0.44671 0.85312 0.00000
O538 O 0.34339 0.42611 0.82541 0.00000
C539 C 0.26769 0.53363 0.87905 0.00000
C540 C 0.56741 0.27984 0.87550 0.00000
C541 C 0.49964 0.32211 0.94704 0.00000
Zn542 Zn 0.54111 0.31808 0.82776 0.00000
Zn543 Zn 0.51452 0.30554 0.89037 0.00000
Zn544 Zn 0.50835 0.36925 0.85624 0.00000
Zn545 Zn 0.47736 0.31329 0.83463 0.00000
O546 O 0.53190 0.28670 0.80221 0.00000
O547 O 0.48321 0.29161 0.79965 0.00000
C548 C 0.44504 0.36150 0.84555 0.00000
C549 C 0.50715 0.36784 0.79280 0.00000
C550 C 0.50764 0.28033 0.79198 0.00000
O551 O 0.50582 0.29644 0.95559 0.00000
O552 O 0.50360 0.33089 0.92140 0.00000
O553 O 0.46312 0.37043 0.86184 0.00000
O554 O 0.44631 0.34074 0.82812 0.00000
O555 O 0.45741 0.28272 0.85817 0.00000
O556 O 0.48943 0.27193 0.89046 0.00000
C557 C 0.57299 0.36819 0.83977 0.00000
O558 O 0.51007 0.32648 0.85460 0.00000
O559 O 0.55219 0.28813 0.89694 0.00000
O560 O 0.56488 0.28877 0.85066 0.00000
O561 O 0.50228 0.38222 0.81597 0.00000
O562 O 0.52115 0.34548 0.79438 0.00000
H563 H 0.50330 0.28483 0.94200 0.00000
O564 O 0.55329 0.37639 0.85312 0.00000
O565 O 0.57389 0.34339 0.82541 0.00000
C566 C 0.46637 0.26769 0.87905 0.00000
C567 C 0.72016 0.87550 0.43259 0.00000
C568 C 0.67789 0.94704 0.50036 0.00000
Zn569 Zn 0.68192 0.82776 0.45889 0.00000
Zn570 Zn 0.69446 0.89037 0.48548 0.00000
Zn571 Zn 0.63075 0.85624 0.49165 0.00000
Zn572 Zn 0.68671 0.83463 0.52264 0.00000
O573 O 0.71330 0.80221 0.46810 0.00000
O574 O 0.70839 0.79965 0.51679 0.00000
C575 C 0.63850 0.84555 0.55496 0.00000
C576 C 0.63216 0.79280 0.49285 0.00000
C577 C 0.71967 0.79198 0.49236 0.00000
O578 O 0.70356 0.95559 0.49418 0.00000
O579 O 0.66911 0.92140 0.49640 0.00000
O580 O 0.62957 0.86184 0.53688 0.00000
O581 O 0.65926 0.82812 0.55369 0.00000
O582 O 0.71728 0.85817 0.54259 0.00000
O583 O 0.72807 0.89046 0.51057 0.00000
C584 C 0.63181 0.83977 0.42701 0.00000
O585 O 0.67352 0.85460 0.48993 0.00000
O586 O 0.71187 0.89694 0.44781 0.00000
O587 O 0.71123 0.85066 0.43512 0.00000
O588 O 0.61778 0.81597 0.49772 0.00000
O589 O 0.65452 0.79438 0.47885 0.00000
H590 H 0.71517 0.94200 0.49670 0.00000
O591 O 0.62361 0.85312 0.44671 0.00000
O592 O 0.65661 0.82541 0.42611 0.00000
C593 C 0.73231 0.87905 0.53363 0.00000
C594 C 0.12450 0.56741 0.72016 0.00000
C595 C 0.05296 0.49964 0.67789 0.00000
Zn596 Zn 0.17224 0.54111 0.68192 0.00000
Zn597 Zn 0.10963 0.51452 0.69446 0.00000
Zn598 Zn 0.14376 0.50835 0.63075 0.00000
Zn599 Zn 0.16537 0.47736 0.68671 0.00000
O600 O 0.19779 0.53190 0.71330 0.00000
O601 O 0.20035 0.48321 0.70839 0.00000
C602 C 0.15445 0.44504 0.63850 0.00000
C603 C 0.20720 0.50715 0.63216 0.00000
C604 C 0.20802 0.50764 0.71967 0.00000
O605 O 0.04441 0.50582 0.70356 0.00000
O606 O 0.07860 0.50360 0.66911 0.00000
O607 O 0.13816 0.46312 0.62957 0.00000
O608 O 0.17188 0.44631 0.65926 0.00000
O609 O 0.14183 0.45741 0.71728 0.00000
O610 O 0.10954 0.48943 0.72807 0.00000
C611 C 0.16023 0.57299 0.63181 0.00000
O612 O 0.14540 0.51007 0.67352 0.00000
O613 O 0.10306 0.55219 0.71187 0.00000
O614 O 0.14934 0.56488 0.71123 0.00000
O615 O 0.18403 0.50228 0.61778 0.00000
O616 O 0.20562 0.52115 0.65452 0.00000
H617 H 0.05800 0.50330 0.71517 0.00000
O618 O 0.14688 0.55329 0.62361 0.00000
O619 O 0.17459 0.57389 0.65661 0.00000
C620 C 0.12095 0.46637 0.73231 0.00000
C621 C 0.43259 0.12450 0.72016 0.00000
C622 C 0.50036 0.05296 0.67789 0.00000
Zn623 Zn 0.45889 0.17224 0.68192 0.00000
Zn624 Zn 0.48548 0.10963 0.69446 0.00000
Zn625 Zn 0.49165 0.14376 0.63075 0.00000
Zn626 Zn 0.52264 0.16537 0.68671 0.00000
O627 O 0.46810 0.19779 0.71330 0.00000
O628 O 0.51679 0.20035 0.70839 0.00000
C629 C 0.55496 0.15445 0.63850 0.00000
C630 C 0.49285 0.20720 0.63216 0.00000
C631 C 0.49236 0.20802 0.71967 0.00000
O632 O 0.49418 0.04441 0.70356 0.00000
O633 O 0.49640 0.07860 0.66911 0.00000
O634 O 0.53688 0.13816 0.62957 0.00000
O635 O 0.55369 0.17188 0.65926 0.00000
O636 O 0.54259 0.14183 0.71728 0.00000
O637 O 0.51057 0.10954 0.72807 0.00000
C638 C 0.42701 0.16023 0.63181 0.00000
O639 O 0.48993 0.14540 0.67352 0.00000
O640 O 0.44781 0.10306 0.71187 0.00000
O641 O 0.43512 0.14934 0.71123 0.00000
O642 O 0.49772 0.18403 0.61778 0.00000
O643 O 0.47885 0.20562 0.65452 0.00000
H644 H 0.49670 0.05800 0.71517 0.00000
O645 O 0.44671 0.14688 0.62361 0.00000
O646 O 0.42611 0.17459 0.65661 0.00000
C647 C 0.53363 0.12095 0.73231 0.00000
C648 C 0.85592 0.38138 0.56581 0.00000
H649 H 0.86566 0.40030 0.62083 0.00000
H650 H 0.83604 0.38450 0.61880 0.00000
H651 H 0.85717 0.42423 0.57837 0.00000
H652 H 0.82563 0.41228 0.57700 0.00000
H653 H 0.85548 0.38580 0.54542 0.00000
H654 H 0.87575 0.37748 0.57108 0.00000
C655 C 0.84578 0.40255 0.61494 0.00000
C656 C 0.84517 0.40779 0.58288 0.00000
C657 C 0.60109 0.16210 0.37032 0.00000
H658 H 0.63025 0.13082 0.41096 0.00000
H659 H 0.60334 0.14573 0.42454 0.00000
H660 H 0.64182 0.17187 0.38586 0.00000
H661 H 0.61764 0.18931 0.40167 0.00000
H662 H 0.60185 0.17633 0.35508 0.00000
H663 H 0.60673 0.14371 0.36219 0.00000
C664 C 0.62302 0.14892 0.41838 0.00000
C665 C 0.62272 0.17052 0.39411 0.00000
C666 C 0.85957 0.63350 0.42137 0.00000
H667 H 0.83590 0.61548 0.37043 0.00000
H668 H 0.82161 0.59961 0.39641 0.00000
H669 H 0.88092 0.60975 0.39013 0.00000
H670 H 0.86855 0.59023 0.41473 0.00000
H671 H 0.87683 0.63718 0.43250 0.00000
H672 H 0.85630 0.65002 0.40901 0.00000
C673 C 0.83844 0.59992 0.38408 0.00000
C674 C 0.86440 0.60661 0.40245 0.00000
C675 C 0.36743 0.86018 0.42206 0.00000
H676 H 0.38444 0.83815 0.37004 0.00000
H677 H 0.39905 0.82147 0.39533 0.00000
H678 H 0.39288 0.88157 0.39221 0.00000
H679 H 0.41127 0.86663 0.41624 0.00000
H680 H 0.36476 0.87701 0.43408 0.00000
H681 H 0.35088 0.85867 0.40941 0.00000
C682 C 0.39998 0.83892 0.38393 0.00000
C683 C 0.39479 0.86423 0.40364 0.00000
C684 C 0.16850 0.37268 0.43053 0.00000
H685 H 0.16360 0.42507 0.40386 0.00000
H686 H 0.13894 0.40442 0.39404 0.00000
H687 H 0.19706 0.38882 0.40020 0.00000
H688 H 0.17427 0.36807 0.38646 0.00000
H689 H 0.18067 0.35651 0.43559 0.00000
H690 H 0.17199 0.38789 0.44442 0.00000
C691 C 0.15907 0.40913 0.39120 0.00000
C692 C 0.17690 0.38352 0.40026 0.00000
C693 C 0.58243 0.63992 0.84918 0.00000
H694 H 0.61991 0.60696 0.81772 0.00000
H695 H 0.59525 0.58797 0.83047 0.00000
H696 H 0.62481 0.63141 0.86045 0.00000
H697 H 0.60313 0.61058 0.87579 0.00000
H698 H 0.57975 0.65424 0.86411 0.00000
H699 H 0.58734 0.64994 0.83152 0.00000
C700 C 0.61332 0.59737 0.83503 0.00000
C701 C 0.60761 0.61996 0.85767 0.00000
C702 C 0.56304 0.38333 0.15206 0.00000
H703 H 0.61127 0.41197 0.13378 0.00000
H704 H 0.61968 0.38542 0.15262 0.00000
H705 H 0.57508 0.42431 0.16518 0.00000
H706 H 0.58487 0.40054 0.18706 0.00000
H707 H 0.54424 0.38434 0.16105 0.00000
H708 H 0.56080 0.38857 0.13197 0.00000
C709 C 0.61291 0.40514 0.15342 0.00000
C710 C 0.58329 0.40520 0.16676 0.00000
C711 C 0.62929 0.84694 0.40096 0.00000
H712 H 0.57908 0.87159 0.38223 0.00000
H713 H 0.57288 0.84238 0.39770 0.00000
H714 H 0.61762 0.85206 0.35814 0.00000
H715 H 0.61027 0.82123 0.36974 0.00000
H716 H 0.64878 0.84098 0.39650 0.00000
H717 H 0.62965 0.86741 0.40509 0.00000
C718 C 0.57930 0.85089 0.37975 0.00000
C719 C 0.60997 0.84157 0.37446 0.00000
C720 C 0.17537 0.62069 0.40747 0.00000
H721 H 0.15879 0.59588 0.35658 0.00000
H722 H 0.13590 0.59018 0.38056 0.00000
H723 H 0.19582 0.58612 0.38791 0.00000
H724 H 0.17409 0.57623 0.41177 0.00000
H725 H 0.19034 0.62340 0.42175 0.00000
H726 H 0.17905 0.63395 0.39176 0.00000
C727 C 0.15440 0.58399 0.37315 0.00000
C728 C 0.17688 0.58956 0.39594 0.00000
C729 C 0.41938 0.83934 0.63945 0.00000
H730 H 0.39128 0.81431 0.59402 0.00000
H731 H 0.40572 0.84317 0.58457 0.00000
H732 H 0.37507 0.83477 0.63605 0.00000
H733 H 0.38552 0.86530 0.62615 0.00000
H734 H 0.41871 0.84564 0.65933 0.00000
H735 H 0.42322 0.81881 0.63938 0.00000
C736 C 0.38917 0.83505 0.59435 0.00000
C737 C 0.38982 0.84488 0.62532 0.00000
C738 C 0.14541 0.58637 0.61993 0.00000
H739 H 0.14943 0.60231 0.56327 0.00000
H740 H 0.17491 0.61520 0.58104 0.00000
H741 H 0.11713 0.61384 0.59893 0.00000
H742 H 0.14084 0.63066 0.61608 0.00000
H743 H 0.13360 0.58487 0.63706 0.00000
H744 H 0.14115 0.56992 0.60777 0.00000
C745 C 0.15472 0.61767 0.57636 0.00000
C746 C 0.13743 0.61422 0.60365 0.00000
C747 C 0.36047 0.16043 0.58072 0.00000
H748 H 0.40562 0.18575 0.60901 0.00000
H749 H 0.41542 0.15718 0.59423 0.00000
H750 H 0.36390 0.16455 0.62507 0.00000
H751 H 0.37418 0.13427 0.61427 0.00000
H752 H 0.34068 0.15386 0.58135 0.00000
H753 H 0.36026 0.18100 0.57711 0.00000
C754 C 0.40557 0.16498 0.61089 0.00000
C755 C 0.37474 0.15475 0.61019 0.00000
C756 C 0.38864 0.16905 0.41987 0.00000
H757 H 0.41848 0.18022 0.37022 0.00000
H758 H 0.40126 0.15146 0.36748 0.00000
H759 H 0.43314 0.16849 0.41600 0.00000
H760 H 0.41973 0.13764 0.41325 0.00000
H761 H 0.38892 0.16744 0.44067 0.00000
H762 H 0.38676 0.18929 0.41505 0.00000
C763 C 0.41861 0.16000 0.37532 0.00000
C764 C 0.41738 0.15764 0.40771 0.00000
C765 C 0.61744 0.85310 0.56443 0.00000
H766 H 0.59522 0.86690 0.61730 0.00000
H767 H 0.61575 0.84036 0.61963 0.00000
H768 H 0.57455 0.84882 0.57615 0.00000
H769 H 0.59158 0.81986 0.57936 0.00000
H770 H 0.61388 0.84917 0.54425 0.00000
H771 H 0.61782 0.87384 0.56692 0.00000
C772 C 0.59649 0.84631 0.61422 0.00000
C773 C 0.59257 0.84048 0.58250 0.00000
C774 C 0.40172 0.62886 0.84831 0.00000
H775 H 0.38433 0.57726 0.87101 0.00000
H776 H 0.39729 0.57292 0.84028 0.00000
H777 H 0.35929 0.61726 0.85612 0.00000
H778 H 0.36825 0.61191 0.82402 0.00000
H779 H 0.39708 0.64875 0.84405 0.00000
H780 H 0.40750 0.62780 0.86835 0.00000
C781 C 0.38018 0.57891 0.85063 0.00000
C782 C 0.37460 0.61019 0.84385 0.00000
C783 C 0.62110 0.56832 0.14090 0.00000
H784 H 0.60563 0.62518 0.13814 0.00000
H785 H 0.61389 0.61665 0.16961 0.00000
H786 H 0.57991 0.58332 0.13226 0.00000
H787 H 0.58399 0.57530 0.16480 0.00000
H788 H 0.61648 0.54851 0.13625 0.00000
H789 H 0.62967 0.57703 0.12396 0.00000
C790 C 0.59864 0.61575 0.15539 0.00000
C791 C 0.59307 0.58451 0.14840 0.00000
C792 C 0.41953 0.63933 0.16102 0.00000
H793 H 0.39172 0.59347 0.18559 0.00000
H794 H 0.40564 0.58458 0.15629 0.00000
H795 H 0.37530 0.63595 0.16627 0.00000
H796 H 0.38520 0.62666 0.13537 0.00000
H797 H 0.41882 0.65933 0.15514 0.00000
H798 H 0.42372 0.63882 0.18148 0.00000
C799 C 0.38926 0.59423 0.16489 0.00000
C800 C 0.38984 0.62539 0.15569 0.00000
C801 C 0.36589 0.42479 0.16757 0.00000
H802 H 0.41881 0.40070 0.17752 0.00000
H803 H 0.41197 0.40110 0.14460 0.00000
H804 H 0.37286 0.38573 0.18812 0.00000
H805 H 0.36573 0.38180 0.15536 0.00000
H806 H 0.34557 0.42534 0.17228 0.00000
H807 H 0.37607 0.43608 0.18189 0.00000
C808 C 0.40823 0.39094 0.16243 0.00000
C809 C 0.37650 0.39333 0.16904 0.00000
C810 C 0.37012 0.39896 0.83963 0.00000
H811 H 0.41263 0.37198 0.87036 0.00000
H812 H 0.42535 0.39729 0.85222 0.00000
H813 H 0.38452 0.35730 0.83238 0.00000
H814 H 0.39926 0.37963 0.81180 0.00000
H815 H 0.35387 0.39721 0.82665 0.00000
H816 H 0.36328 0.39506 0.85897 0.00000
C817 C 0.41880 0.37750 0.85121 0.00000
C818 C 0.39302 0.37632 0.83146 0.00000
C819 C 0.59827 0.37115 0.84831 0.00000
H820 H 0.61566 0.42275 0.87100 0.00000
H821 H 0.60272 0.42708 0.84027 0.00000
H822 H 0.64070 0.38275 0.85614 0.00000
H823 H 0.63175 0.38809 0.82404 0.00000
H824 H 0.60292 0.35125 0.84407 0.00000
H825 H 0.59249 0.37222 0.86836 0.00000
C826 C 0.61981 0.42110 0.85063 0.00000
C827 C 0.62540 0.38981 0.84386 0.00000
C828 C 0.82505 0.37821 0.40621 0.00000
H829 H 0.84418 0.40367 0.35656 0.00000
H830 H 0.86444 0.41122 0.38231 0.00000
H831 H 0.80398 0.41104 0.38444 0.00000
H832 H 0.82281 0.42269 0.40992 0.00000
H833 H 0.80912 0.37457 0.41919 0.00000
H834 H 0.82369 0.36457 0.39045 0.00000
C835 C 0.84626 0.41600 0.37325 0.00000
C836 C 0.82234 0.40904 0.39411 0.00000
C837 C 0.14571 0.38103 0.58526 0.00000
H838 H 0.15198 0.43719 0.60220 0.00000
H839 H 0.17529 0.41776 0.61671 0.00000
H840 H 0.11679 0.40351 0.61084 0.00000
H841 H 0.13808 0.38478 0.62914 0.00000
H842 H 0.13302 0.36468 0.58267 0.00000
H843 H 0.14345 0.39356 0.56871 0.00000
C844 C 0.15530 0.42367 0.61773 0.00000
C845 C 0.13668 0.39753 0.61266 0.00000
C846 C 0.62655 0.14771 0.59479 0.00000
H847 H 0.57113 0.13337 0.60901 0.00000
H848 H 0.57422 0.16667 0.60550 0.00000
H849 H 0.61369 0.13083 0.63411 0.00000
H850 H 0.61616 0.16448 0.63489 0.00000
H851 H 0.64691 0.14577 0.59893 0.00000
H852 H 0.62066 0.13098 0.58375 0.00000
C853 C 0.57765 0.15074 0.61854 0.00000
C854 C 0.60968 0.14828 0.62342 0.00000
C855 C 0.86119 0.57621 0.63029 0.00000
H856 H 0.84340 0.63038 0.61515 0.00000
H857 H 0.82170 0.60724 0.60401 0.00000
H858 H 0.88196 0.60279 0.60100 0.00000
H859 H 0.86154 0.58062 0.58582 0.00000
H860 H 0.87662 0.56218 0.63078 0.00000
H861 H 0.86380 0.58914 0.64648 0.00000
C862 C 0.84008 0.61631 0.60012 0.00000
C863 C 0.86326 0.59363 0.60207 0.00000
C864 C 0.03013 0.48336 0.66356 0.00000
H865 H 0.97780 0.49778 0.64047 0.00000
H866 H 0.98736 0.52056 0.66329 0.00000
H867 H 0.99219 0.46060 0.66976 0.00000
H868 H 0.99852 0.48196 0.69512 0.00000
H869 H 0.04211 0.46876 0.67243 0.00000
H870 H 0.03059 0.48032 0.64291 0.00000
C871 C 0.97891 0.50162 0.66094 0.00000
C872 C 0.99890 0.47980 0.67435 0.00000
C873 C 0.51610 0.96984 0.33830 0.00000
H874 H 0.49885 0.02201 0.35975 0.00000
H875 H 0.47915 0.01262 0.33417 0.00000
H876 H 0.53944 0.00781 0.33530 0.00000
H877 H 0.52146 0.00167 0.30740 0.00000
H878 H 0.53171 0.95792 0.33127 0.00000
H879 H 0.51650 0.96923 0.35918 0.00000
C880 C 0.49763 0.02105 0.33895 0.00000
C881 C 0.52098 0.00114 0.32827 0.00000
C882 C 0.03026 0.51440 0.34164 0.00000
H883 H 0.97835 0.49237 0.35897 0.00000
H884 H 0.98736 0.47949 0.32924 0.00000
H885 H 0.99229 0.53772 0.34492 0.00000
H886 H 0.99801 0.52706 0.31341 0.00000
H887 H 0.04210 0.53128 0.33845 0.00000
H888 H 0.03115 0.50973 0.36198 0.00000
C889 C 0.97903 0.49624 0.33849 0.00000
C890 C 0.99883 0.52152 0.33353 0.00000
C891 C 0.65554 0.49149 0.03154 0.00000
H892 H 0.67690 0.47411 0.97937 0.00000
H893 H 0.68592 0.50584 0.98589 0.00000
H894 H 0.63086 0.48263 0.99537 0.00000
H895 H 0.63726 0.51561 0.99865 0.00000
H896 H 0.63906 0.49308 0.04424 0.00000
H897 H 0.66308 0.47209 0.03325 0.00000
C898 C 0.67022 0.49386 0.97916 0.00000
C899 C 0.64562 0.49654 0.00010 0.00000
C900 C 0.48675 0.03180 0.66391 0.00000
H901 H 0.48495 0.97876 0.68967 0.00000
H902 H 0.51588 0.98533 0.67821 0.00000
H903 H 0.46452 0.99638 0.64820 0.00000
H904 H 0.49484 0.99990 0.63377 0.00000
H905 H 0.47833 0.04506 0.65017 0.00000
H906 H 0.47569 0.03305 0.68159 0.00000
C907 C 0.49682 0.97899 0.67253 0.00000
C908 C 0.48454 0.00010 0.65191 0.00000
C909 C 0.31922 0.96939 0.49186 0.00000
H910 H 0.33533 0.02349 0.47471 0.00000
H911 H 0.35323 0.01370 0.50145 0.00000
H912 H 0.29362 0.00590 0.49469 0.00000
H913 H 0.30943 0.99990 0.52373 0.00000
H914 H 0.30374 0.95632 0.49685 0.00000
H915 H 0.32065 0.96993 0.47102 0.00000
C916 C 0.33480 0.02144 0.49546 0.00000
C917 C 0.31175 0.99990 0.50298 0.00000
C918 C 0.96819 0.66951 0.51332 0.00000
H919 H 0.02174 0.69313 0.50594 0.00000
H920 H 0.01484 0.67145 0.48118 0.00000
H921 H 0.00338 0.66212 0.53984 0.00000
H922 H 0.99990 0.63784 0.51672 0.00000
H923 H 0.95469 0.65998 0.52606 0.00000
H924 H 0.96735 0.69000 0.51728 0.00000
C925 C 0.02113 0.67287 0.50102 0.00000
C926 C 0.99886 0.65849 0.51981 0.00000
C927 C 0.65271 0.03129 0.50399 0.00000
H928 H 0.66780 0.97948 0.52782 0.00000
H929 H 0.68704 0.98628 0.50109 0.00000
H930 H 0.62719 0.99462 0.50396 0.00000
H931 H 0.64444 0.99814 0.47517 0.00000
H932 H 0.63754 0.04367 0.49680 0.00000
H933 H 0.65310 0.03307 0.52479 0.00000
C934 C 0.66831 0.97921 0.50698 0.00000
C935 C 0.64573 0.99990 0.49595 0.00000
C936 C 0.96833 0.32455 0.48906 0.00000
H937 H 0.02237 0.30724 0.50518 0.00000
H938 H 0.01485 0.33697 0.51897 0.00000
H939 H 0.00346 0.32127 0.46166 0.00000
H940 H 0.99896 0.35278 0.47288 0.00000
H941 H 0.95467 0.32774 0.47361 0.00000
H942 H 0.96797 0.30422 0.49381 0.00000
C943 C 0.02126 0.32772 0.50140 0.00000
C944 C 0.99877 0.33267 0.47848 0.00000
C945 C 0.48362 0.66258 0.03015 0.00000
H946 H 0.49955 0.64030 0.97790 0.00000
H947 H 0.52075 0.66462 0.98737 0.00000
H948 H 0.46050 0.66711 0.99219 0.00000
H949 H 0.48012 0.69385 0.99842 0.00000
H950 H 0.46845 0.67050 0.04209 0.00000
H951 H 0.48195 0.64176 0.03068 0.00000
C952 C 0.50202 0.66098 0.97893 0.00000
C953 C 0.47935 0.67298 0.99888 0.00000
C954 C 0.32015 0.49014 0.03051 0.00000
H955 H 0.33870 0.47521 0.97654 0.00000
H956 H 0.35298 0.50400 0.98644 0.00000
H957 H 0.29466 0.48971 0.99382 0.00000
H958 H 0.30660 0.52053 0.00010 0.00000
H959 H 0.30407 0.49312 0.04347 0.00000
H960 H 0.32422 0.46966 0.02999 0.00000
C961 C 0.33552 0.49572 0.97858 0.00000
C962 C 0.31155 0.50025 0.00010 0.00000
C963 C 0.49378 0.32004 0.03141 0.00000
H964 H 0.51537 0.31228 0.97706 0.00000
H965 H 0.51556 0.34487 0.98535 0.00000
H966 H 0.47007 0.30645 0.99607 0.00000
H967 H 0.46715 0.33966 0.00136 0.00000
H968 H 0.47847 0.31617 0.04505 0.00000
H969 H 0.50658 0.30353 0.03132 0.00000
C970 C 0.50341 0.32929 0.97863 0.00000
C971 C 0.48063 0.32371 0.00111 0.00000
C972 C 0.72091 0.49732 0.76610 0.00000
H973 H 0.76881 0.47054 0.74447 0.00000
H974 H 0.77670 0.50084 0.75673 0.00000
H975 H 0.72809 0.48853 0.72289 0.00000
H976 H 0.73674 0.52011 0.73107 0.00000
H977 H 0.70109 0.50314 0.76318 0.00000
H978 H 0.72088 0.47726 0.77194 0.00000
C979 C 0.76844 0.49097 0.74031 0.00000
C980 C 0.73742 0.50022 0.73741 0.00000
C981 C 0.50715 0.21522 0.25798 0.00000
H982 H 0.52176 0.26156 0.22452 0.00000
H983 H 0.50311 0.27130 0.25076 0.00000
H984 H 0.49231 0.22262 0.21649 0.00000
H985 H 0.47048 0.23329 0.23992 0.00000
H986 H 0.49929 0.19592 0.25895 0.00000
H987 H 0.52721 0.21367 0.25236 0.00000
C988 C 0.50223 0.26269 0.23177 0.00000
C989 C 0.49071 0.23246 0.23481 0.00000
C990 C 0.73912 0.48269 0.22064 0.00000
H991 H 0.76063 0.48166 0.27556 0.00000
H992 H 0.74865 0.51219 0.26809 0.00000
H993 H 0.78227 0.47798 0.23122 0.00000
H994 H 0.77439 0.50995 0.22383 0.00000
H995 H 0.74206 0.47838 0.20043 0.00000
H996 H 0.73311 0.46507 0.23012 0.00000
C997 C 0.76497 0.49943 0.26554 0.00000
C998 C 0.76787 0.49283 0.23386 0.00000
C999 C 0.50177 0.78468 0.26029 0.00000
H1000 H 0.48632 0.74920 0.21577 0.00000
H1001 H 0.48693 0.73221 0.24479 0.00000
H1002 H 0.52870 0.77217 0.22691 0.00000
H1003 H 0.53277 0.75303 0.25441 0.00000
H1004 H 0.51513 0.79885 0.26776 0.00000
H1005 H 0.48819 0.79460 0.24790 0.00000
C1006 C 0.49892 0.73986 0.22951 0.00000
C1007 C 0.51857 0.76237 0.24227 0.00000
C1008 C 0.21615 0.48965 0.25812 0.00000
H1009 H 0.26572 0.47755 0.22852 0.00000
H1010 H 0.27130 0.50115 0.25182 0.00000
H1011 H 0.22329 0.49915 0.21505 0.00000
H1012 H 0.22945 0.52558 0.23511 0.00000
H1013 H 0.19587 0.49451 0.25737 0.00000
H1014 H 0.21787 0.46899 0.25561 0.00000
C1015 C 0.26360 0.49787 0.23270 0.00000
C1016 C 0.23188 0.50493 0.23315 0.00000
C1017 C 0.51233 0.76381 0.72233 0.00000
H1018 H 0.47849 0.72559 0.75190 0.00000
H1019 H 0.48232 0.75404 0.76942 0.00000
H1020 H 0.52646 0.72518 0.73976 0.00000
H1021 H 0.53266 0.75136 0.76013 0.00000
H1022 H 0.53004 0.76730 0.71188 0.00000
H1023 H 0.49880 0.75488 0.70916 0.00000
C1024 C 0.49158 0.73604 0.76433 0.00000
C1025 C 0.51846 0.74286 0.74739 0.00000
C1026 C 0.21577 0.73890 0.50321 0.00000
H1027 H 0.24921 0.78526 0.48861 0.00000
H1028 H 0.26665 0.75667 0.48564 0.00000
H1029 H 0.22981 0.77039 0.53163 0.00000
H1030 H 0.24965 0.74309 0.53205 0.00000
H1031 H 0.20281 0.73011 0.51699 0.00000
H1032 H 0.20462 0.75208 0.49145 0.00000
C1033 C 0.25973 0.77080 0.49934 0.00000
C1034 C 0.23903 0.75607 0.51960 0.00000
C1035 C 0.78052 0.26002 0.48391 0.00000
H1036 H 0.72628 0.23714 0.48009 0.00000
H1037 H 0.73086 0.25185 0.50999 0.00000
H1038 H 0.77115 0.21638 0.48208 0.00000
H1039 H 0.77560 0.22713 0.51376 0.00000
H1040 H 0.80107 0.25724 0.48160 0.00000
H1041 H 0.77250 0.26428 0.46510 0.00000
C1042 C 0.73480 0.23458 0.49896 0.00000
C1043 C 0.76698 0.23191 0.49535 0.00000
C1044 C 0.72170 0.76737 0.50460 0.00000
H1045 H 0.77183 0.74718 0.52826 0.00000
H1046 H 0.77654 0.75581 0.49610 0.00000
H1047 H 0.72890 0.72516 0.51733 0.00000
H1048 H 0.73413 0.72956 0.48428 0.00000
H1049 H 0.70130 0.76449 0.50133 0.00000
H1050 H 0.72404 0.77535 0.52376 0.00000
C1051 C 0.76908 0.74084 0.50858 0.00000
C1052 C 0.73718 0.73800 0.50314 0.00000
C1053 C 0.21673 0.25835 0.51173 0.00000
H1054 H 0.26758 0.23039 0.52235 0.00000
H1055 H 0.27107 0.25208 0.49688 0.00000
H1056 H 0.22404 0.21484 0.50473 0.00000
H1057 H 0.22799 0.23310 0.47662 0.00000
H1058 H 0.19618 0.25697 0.50836 0.00000
H1059 H 0.21990 0.25731 0.53235 0.00000
C1060 C 0.26399 0.23313 0.50199 0.00000
C1061 C 0.23186 0.23261 0.49714 0.00000
C1062 C 0.23635 0.50400 0.72012 0.00000
H1063 H 0.26439 0.47083 0.76003 0.00000
H1064 H 0.24261 0.49157 0.77506 0.00000
H1065 H 0.27984 0.50691 0.72991 0.00000
H1066 H 0.26147 0.52979 0.74659 0.00000
H1067 H 0.23769 0.51664 0.70357 0.00000
H1068 H 0.23747 0.48432 0.71322 0.00000
C1069 C 0.26158 0.49047 0.76643 0.00000
C1070 C 0.26204 0.50986 0.74036 0.00000
C1071 C 0.48173 0.23291 0.72709 0.00000
H1072 H 0.50880 0.28057 0.74889 0.00000
H1073 H 0.52202 0.25248 0.76182 0.00000
H1074 H 0.46290 0.26291 0.75431 0.00000
H1075 H 0.47439 0.23596 0.77107 0.00000
H1076 H 0.46376 0.22313 0.72299 0.00000
H1077 H 0.48523 0.24656 0.71167 0.00000
C1078 C 0.50592 0.26569 0.76321 0.00000
C1079 C 0.47877 0.24947 0.75575 0.00000
loop_
_geom_bond_atom_site_label_1
_geom_bond_atom_site_label_2
_geom_bond_distance
_geom_bond_site_symmetry_2
_ccdc_geom_bond_type
C0 O19 1.282 . A
C0 O20 1.233 . A
C1 O11 1.291 . A
C1 O12 1.274 . A
Zn2 O6 1.930 . S
Zn2 O18 1.948 . S
Zn2 O20 2.053 . S
Zn2 O22 2.212 . S
Zn2 O25 1.929 . S
Zn3 O12 1.931 . S
Zn3 O16 1.950 . S
Zn3 O18 1.938 . S
Zn3 O19 1.954 . S
Zn4 O13 2.120 . S
Zn4 O18 1.992 . S
Zn4 O21 1.988 . S
Zn4 O24 2.121 . S
Zn5 O7 1.932 . S
Zn5 O14 1.951 . S
Zn5 O15 2.020 . S
Zn5 O18 1.885 . S
O6 C10 1.259 . A
O7 C10 1.301 . A
C8 O13 1.205 . A
C8 O14 1.262 . A
C9 O21 1.288 . A
C9 O22 1.229 . A
O11 H23 0.839 . S
O15 C26 1.267 . A
O16 C26 1.213 . A
C17 O24 1.171 . A
C17 O25 1.333 . A
C27 O46 1.282 . A
C27 O47 1.233 . A
C28 O38 1.291 . A
C28 O39 1.274 . A
Zn29 O33 1.930 . S
Zn29 O45 1.948 . S
Zn29 O47 2.053 . S
Zn29 O49 2.212 . S
Zn29 O52 1.929 . S
Zn30 O39 1.931 . S
Zn30 O43 1.950 . S
Zn30 O45 1.938 . S
Zn30 O46 1.954 . S
Zn31 O40 2.120 . S
Zn31 O45 1.992 . S
Zn31 O48 1.988 . S
Zn31 O51 2.121 . S
Zn32 O34 1.932 . S
Zn32 O41 1.951 . S
Zn32 O42 2.020 . S
Zn32 O45 1.885 . S
O33 C37 1.259 . A
O34 C37 1.301 . A
C35 O40 1.205 . A
C35 O41 1.262 . A
C36 O48 1.288 . A
C36 O49 1.229 . A
O38 H50 0.839 . S
O42 C53 1.267 . A
O43 C53 1.213 . A
C44 O51 1.171 . A
C44 O52 1.333 . A
C54 O73 1.282 . A
C54 O74 1.233 . A
C55 O65 1.291 . A
C55 O66 1.274 . A
Zn56 O60 1.930 . S
Zn56 O72 1.948 . S
Zn56 O74 2.053 . S
Zn56 O76 2.212 . S
Zn56 O79 1.929 . S
Zn57 O66 1.931 . S
Zn57 O70 1.950 . S
Zn57 O72 1.938 . S
Zn57 O73 1.954 . S
Zn58 O67 2.120 . S
Zn58 O72 1.992 . S
Zn58 O75 1.988 . S
Zn58 O78 2.121 . S
Zn59 O61 1.932 . S
Zn59 O68 1.951 . S
Zn59 O69 2.020 . S
Zn59 O72 1.885 . S
O60 C64 1.259 . A
O61 C64 1.301 . A
C62 O67 1.205 . A
C62 O68 1.262 . A
C63 O75 1.288 . A
C63 O76 1.229 . A
O65 H77 0.839 . S
O69 C80 1.267 . A
O70 C80 1.213 . A
C71 O78 1.171 . A
C71 O79 1.333 . A
C81 O100 1.282 . A
C81 O101 1.233 . A
C82 O92 1.291 . A
C82 O93 1.274 . A
Zn83 O87 1.930 . S
Zn83 O99 1.948 . S
Zn83 O101 2.053 . S
Zn83 O103 2.212 . S
Zn83 O106 1.929 . S
Zn84 O93 1.931 . S
Zn84 O97 1.950 . S
Zn84 O99 1.938 . S
Zn84 O100 1.954 . S
Zn85 O94 2.120 . S
Zn85 O99 1.992 . S
Zn85 O102 1.988 . S
Zn85 O105 2.121 . S
Zn86 O88 1.932 . S
Zn86 O95 1.951 . S
Zn86 O96 2.020 . S
Zn86 O99 1.885 . S
O87 C91 1.259 . A
O88 C91 1.301 . A
C89 O94 1.205 . A
C89 O95 1.262 . A
C90 O102 1.288 . A
C90 O103 1.229 . A
O92 H104 0.839 . S
O96 C107 1.267 . A
O97 C107 1.213 . A
C98 O105 1.171 . A
C98 O106 1.333 . A
C108 O127 1.282 . A
C108 O128 1.233 . A
C109 O119 1.291 . A
C109 O120 1.274 . A
Zn110 O114 1.930 . S
Zn110 O126 1.948 . S
Zn110 O128 2.053 . S
Zn110 O130 2.212 . S
Zn110 O133 1.929 . S
Zn111 O120 1.931 . S
Zn111 O124 1.950 . S
Zn111 O126 1.938 . S
Zn111 O127 1.954 . S
Zn112 O121 2.120 . S
Zn112 O126 1.992 . S
Zn112 O129 1.988 . S
Zn112 O132 2.121 . S
Zn113 O115 1.932 . S
Zn113 O122 1.951 . S
Zn113 O123 2.020 . S
Zn113 O126 1.885 . S
O114 C118 1.259 . A
O115 C118 1.301 . A
C116 O121 1.205 . A
C116 O122 1.262 . A
C117 O129 1.288 . A
C117 O130 1.229 . A
O119 H131 0.839 . S
O123 C134 1.267 . A
O124 C134 1.213 . A
C125 O132 1.171 . A
C125 O133 1.333 . A
C135 O154 1.282 . A
C135 O155 1.233 . A
C136 O146 1.291 . A
C136 O147 1.274 . A
Zn137 O141 1.930 . S
Zn137 O153 1.948 . S
Zn137 O155 2.053 . S
Zn137 O157 2.212 . S
Zn137 O160 1.929 . S
Zn138 O147 1.931 . S
Zn138 O151 1.950 . S
Zn138 O153 1.938 . S
Zn138 O154 1.954 . S
Zn139 O148 2.120 . S
Zn139 O153 1.992 . S
Zn139 O156 1.988 . S
Zn139 O159 2.121 . S
Zn140 O142 1.932 . S
Zn140 O149 1.951 . S
Zn140 O150 2.020 . S
Zn140 O153 1.885 . S
O141 C145 1.259 . A
O142 C145 1.301 . A
C143 O148 1.205 . A
C143 O149 1.262 . A
C144 O156 1.288 . A
C144 O157 1.229 . A
O146 H158 0.839 . S
O150 C161 1.267 . A
O151 C161 1.213 . A
C152 O159 1.171 . A
C152 O160 1.333 . A
C162 O181 1.282 . A
C162 O182 1.233 . A
C163 O173 1.291 . A
C163 O174 1.274 . A
Zn164 O168 1.930 . S
Zn164 O180 1.948 . S
Zn164 O182 2.053 . S
Zn164 O184 2.212 . S
Zn164 O187 1.929 . S
Zn165 O174 1.931 . S
Zn165 O178 1.950 . S
Zn165 O180 1.938 . S
Zn165 O181 1.954 . S
Zn166 O175 2.120 . S
Zn166 O180 1.992 . S
Zn166 O183 1.988 . S
Zn166 O186 2.121 . S
Zn167 O169 1.932 . S
Zn167 O176 1.951 . S
Zn167 O177 2.020 . S
Zn167 O180 1.885 . S
O168 C172 1.259 . A
O169 C172 1.301 . A
C170 O175 1.205 . A
C170 O176 1.262 . A
C171 O183 1.288 . A
C171 O184 1.229 . A
O173 H185 0.839 . S
O177 C188 1.267 . A
O178 C188 1.213 . A
C179 O186 1.171 . A
C179 O187 1.333 . A
C189 O208 1.282 . A
C189 O209 1.233 . A
C190 O200 1.291 . A
C190 O201 1.274 . A
Zn191 O195 1.930 . S
Zn191 O207 1.948 . S
Zn191 O209 2.053 . S
Zn191 O211 2.212 . S
Zn191 O214 1.929 . S
Zn192 O201 1.931 . S
Zn192 O205 1.950 . S
Zn192 O207 1.938 . S
Zn192 O208 1.954 . S
Zn193 O202 2.120 . S
Zn193 O207 1.992 . S
Zn193 O210 1.988 . S
Zn193 O213 2.121 . S
Zn194 O196 1.932 . S
Zn194 O203 1.951 . S
Zn194 O204 2.020 . S
Zn194 O207 1.885 . S
O195 C199 1.259 . A
O196 C199 1.301 . A
C197 O202 1.205 . A
C197 O203 1.262 . A
C198 O210 1.288 . A
C198 O211 1.229 . A
O200 H212 0.839 . S
O204 C215 1.267 . A
O205 C215 1.213 . A
C206 O213 1.171 . A
C206 O214 1.333 . A
C216 O235 1.282 . A
C216 O236 1.233 . A
C217 O227 1.291 . A
C217 O228 1.274 . A
Zn218 O222 1.930 . S
Zn218 O234 1.948 . S
Zn218 O236 2.053 . S
Zn218 O238 2.212 . S
Zn218 O241 1.929 . S
Zn219 O228 1.931 . S
Zn219 O232 1.950 . S
Zn219 O234 1.938 . S
Zn219 O235 1.954 . S
Zn220 O229 2.120 . S
Zn220 O234 1.992 . S
Zn220 O237 1.988 . S
Zn220 O240 2.121 . S
Zn221 O223 1.932 . S
Zn221 O230 1.951 . S
Zn221 O231 2.020 . S
Zn221 O234 1.885 . S
O222 C226 1.259 . A
O223 C226 1.301 . A
C224 O229 1.205 . A
C224 O230 1.262 . A
C225 O237 1.288 . A
C225 O238 1.229 . A
O227 H239 0.839 . S
O231 C242 1.267 . A
O232 C242 1.213 . A
C233 O240 1.171 . A
C233 O241 1.333 . A
C243 O262 1.282 . A
C243 O263 1.233 . A
C244 O254 1.291 . A
C244 O255 1.274 . A
Zn245 O249 1.930 . S
Zn245 O261 1.948 . S
Zn245 O263 2.053 . S
Zn245 O265 2.212 . S
Zn245 O268 1.929 . S
Zn246 O255 1.931 . S
Zn246 O259 1.950 . S
Zn246 O261 1.938 . S
Zn246 O262 1.954 . S
Zn247 O256 2.120 . S
Zn247 O261 1.992 . S
Zn247 O264 1.988 . S
Zn247 O267 2.121 . S
Zn248 O250 1.932 . S
Zn248 O257 1.951 . S
Zn248 O258 2.020 . S
Zn248 O261 1.885 . S
O249 C253 1.259 . A
O250 C253 1.301 . A
C251 O256 1.205 . A
C251 O257 1.262 . A
C252 O264 1.288 . A
C252 O265 1.229 . A
O254 H266 0.839 . S
O258 C269 1.267 . A
O259 C269 1.213 . A
C260 O267 1.171 . A
C260 O268 1.333 . A
C270 O289 1.282 . A
C270 O290 1.233 . A
C271 O281 1.291 . A
C271 O282 1.274 . A
Zn272 O276 1.930 . S
Zn272 O288 1.948 . S
Zn272 O290 2.053 . S
Zn272 O292 2.212 . S
Zn272 O295 1.929 . S
Zn273 O282 1.931 . S
Zn273 O286 1.950 . S
Zn273 O288 1.938 . S
Zn273 O289 1.954 . S
Zn274 O283 2.120 . S
Zn274 O288 1.992 . S
Zn274 O291 1.988 . S
Zn274 O294 2.121 . S
Zn275 O277 1.932 . S
Zn275 O284 1.951 . S
Zn275 O285 2.020 . S
Zn275 O288 1.885 . S
O276 C280 1.259 . A
O277 C280 1.301 . A
C278 O283 1.205 . A
C278 O284 1.262 . A
C279 O291 1.288 . A
C279 O292 1.229 . A
O281 H293 0.839 . S
O285 C296 1.267 . A
O286 C296 1.213 . A
C287 O294 1.171 . A
C287 O295 1.333 . A
C297 O316 1.282 . A
C297 O317 1.233 . A
C298 O308 1.291 . A
C298 O309 1.274 . A
Zn299 O303 1.930 . S
Zn299 O315 1.948 . S
Zn299 O317 2.053 . S
Zn299 O319 2.212 . S
Zn299 O322 1.929 . S
Zn300 O309 1.931 . S
Zn300 O313 1.950 . S
Zn300 O315 1.938 . S
Zn300 O316 1.954 . S
Zn301 O310 2.120 . S
Zn301 O315 1.992 . S
Zn301 O318 1.988 . S
Zn301 O321 2.121 . S
Zn302 O304 1.932 . S
Zn302 O311 1.951 . S
Zn302 O312 2.020 . S
Zn302 O315 1.885 . S
O303 C307 1.259 . A
O304 C307 1.301 . A
C305 O310 1.205 . A
C305 O311 1.262 . A
C306 O318 1.288 . A
C306 O319 1.229 . A
O308 H320 0.839 . S
O312 C323 1.267 . A
O313 C323 1.213 . A
C314 O321 1.171 . A
C314 O322 1.333 . A
C324 O343 1.282 . A
C324 O344 1.233 . A
C325 O335 1.291 . A
C325 O336 1.274 . A
Zn326 O330 1.930 . S
Zn326 O342 1.948 . S
Zn326 O344 2.053 . S
Zn326 O346 2.212 . S
Zn326 O349 1.929 . S
Zn327 O336 1.931 . S
Zn327 O340 1.950 . S
Zn327 O342 1.938 . S
Zn327 O343 1.954 . S
Zn328 O337 2.120 . S
Zn328 O342 1.992 . S
Zn328 O345 1.988 . S
Zn328 O348 2.121 . S
Zn329 O331 1.932 . S
Zn329 O338 1.951 . S
Zn329 O339 2.020 . S
Zn329 O342 1.885 . S
O330 C334 1.259 . A
O331 C334 1.301 . A
C332 O337 1.205 . A
C332 O338 1.262 . A
C333 O345 1.288 . A
C333 O346 1.229 . A
O335 H347 0.839 . S
O339 C350 1.267 . A
O340 C350 1.213 . A
C341 O348 1.171 . A
C341 O349 1.333 . A
C351 O370 1.282 . A
C351 O371 1.233 . A
C352 O362 1.291 . A
C352 O363 1.274 . A
Zn353 O357 1.930 . S
Zn353 O369 1.948 . S
Zn353 O371 2.053 . S
Zn353 O373 2.212 . S
Zn353 O376 1.929 . S
Zn354 O363 1.931 . S
Zn354 O367 1.950 . S
Zn354 O369 1.938 . S
Zn354 O370 1.954 . S
Zn355 O364 2.120 . S
Zn355 O369 1.992 . S
Zn355 O372 1.988 . S
Zn355 O375 2.121 . S
Zn356 O358 1.932 . S
Zn356 O365 1.951 . S
Zn356 O366 2.020 . S
Zn356 O369 1.885 . S
O357 C361 1.259 . A
O358 C361 1.301 . A
C359 O364 1.205 . A
C359 O365 1.262 . A
C360 O372 1.288 . A
C360 O373 1.229 . A
O362 H374 0.839 . S
O366 C377 1.267 . A
O367 C377 1.213 . A
C368 O375 1.171 . A
C368 O376 1.333 . A
C378 O397 1.282 . A
C378 O398 1.233 . A
C379 O389 1.291 . A
C379 O390 1.274 . A
Zn380 O384 1.930 . S
Zn380 O396 1.948 . S
Zn380 O398 2.053 . S
Zn380 O400 2.212 . S
Zn380 O403 1.929 . S
Zn381 O390 1.931 . S
Zn381 O394 1.950 . S
Zn381 O396 1.938 . S
Zn381 O397 1.954 . S
Zn382 O391 2.120 . S
Zn382 O396 1.992 . S
Zn382 O399 1.988 . S
Zn382 O402 2.121 . S
Zn383 O385 1.932 . S
Zn383 O392 1.951 . S
Zn383 O393 2.020 . S
Zn383 O396 1.885 . S
O384 C388 1.259 . A
O385 C388 1.301 . A
C386 O391 1.205 . A
C386 O392 1.262 . A
C387 O399 1.288 . A
C387 O400 1.229 . A
O389 H401 0.839 . S
O393 C404 1.267 . A
O394 C404 1.213 . A
C395 O402 1.171 . A
C395 O403 1.333 . A
C405 O424 1.282 . A
C405 O425 1.233 . A
C406 O416 1.291 . A
C406 O417 1.274 . A
Zn407 O411 1.930 . S
Zn407 O423 1.948 . S
Zn407 O425 2.053 . S
Zn407 O427 2.212 . S
Zn407 O430 1.929 . S
Zn408 O417 1.931 . S
Zn408 O421 1.950 . S
Zn408 O423 1.938 . S
Zn408 O424 1.954 . S
Zn409 O418 2.120 . S
Zn409 O423 1.992 . S
Zn409 O426 1.988 . S
Zn409 O429 2.121 . S
Zn410 O412 1.932 . S
Zn410 O419 1.951 . S
Zn410 O420 2.020 . S
Zn410 O423 1.885 . S
O411 C415 1.259 . A
O412 C415 1.301 . A
C413 O418 1.205 . A
C413 O419 1.262 . A
C414 O426 1.288 . A
C414 O427 1.229 . A
O416 H428 0.839 . S
O420 C431 1.267 . A
O421 C431 1.213 . A
C422 O429 1.171 . A
C422 O430 1.333 . A
C432 O451 1.282 . A
C432 O452 1.233 . A
C433 O443 1.291 . A
C433 O444 1.274 . A
Zn434 O438 1.930 . S
Zn434 O450 1.948 . S
Zn434 O452 2.053 . S
Zn434 O454 2.212 . S
Zn434 O457 1.929 . S
Zn435 O444 1.931 . S
Zn435 O448 1.950 . S
Zn435 O450 1.938 . S
Zn435 O451 1.954 . S
Zn436 O445 2.120 . S
Zn436 O450 1.992 . S
Zn436 O453 1.988 . S
Zn436 O456 2.121 . S
Zn437 O439 1.932 . S
Zn437 O446 1.951 . S
Zn437 O447 2.020 . S
Zn437 O450 1.885 . S
O438 C442 1.259 . A
O439 C442 1.301 . A
C440 O445 1.205 . A
C440 O446 1.262 . A
C441 O453 1.288 . A
C441 O454 1.229 . A
O443 H455 0.839 . S
O447 C458 1.267 . A
O448 C458 1.213 . A
C449 O456 1.171 . A
C449 O457 1.333 . A
C459 O478 1.282 . A
C459 O479 1.233 . A
C460 O470 1.291 . A
C460 O471 1.274 . A
Zn461 O465 1.930 . S
Zn461 O477 1.948 . S
Zn461 O479 2.053 . S
Zn461 O481 2.212 . S
Zn461 O484 1.929 . S
Zn462 O471 1.931 . S
Zn462 O475 1.950 . S
Zn462 O477 1.938 . S
Zn462 O478 1.954 . S
Zn463 O472 2.120 . S
Zn463 O477 1.992 . S
Zn463 O480 1.988 . S
Zn463 O483 2.121 . S
Zn464 O466 1.932 . S
Zn464 O473 1.951 . S
Zn464 O474 2.020 . S
Zn464 O477 1.885 . S
O465 C469 1.259 . A
O466 C469 1.301 . A
C467 O472 1.205 . A
C467 O473 1.262 . A
C468 O480 1.288 . A
C468 O481 1.229 . A
O470 H482 0.839 . S
O474 C485 1.267 . A
O475 C485 1.213 . A
C476 O483 1.171 . A
C476 O484 1.333 . A
C486 O505 1.282 . A
C486 O506 1.233 . A
C487 O497 1.291 . A
C487 O498 1.274 . A
Zn488 O492 1.930 . S
Zn488 O504 1.948 . S
Zn488 O506 2.053 . S
Zn488 O508 2.212 . S
Zn488 O511 1.929 . S
Zn489 O498 1.931 . S
Zn489 O502 1.950 . S
Zn489 O504 1.938 . S
Zn489 O505 1.954 . S
Zn490 O499 2.120 . S
Zn490 O504 1.992 . S
Zn490 O507 1.988 . S
Zn490 O510 2.121 . S
Zn491 O493 1.932 . S
Zn491 O500 1.951 . S
Zn491 O501 2.020 . S
Zn491 O504 1.885 . S
O492 C496 1.259 . A
O493 C496 1.301 . A
C494 O499 1.205 . A
C494 O500 1.262 . A
C495 O507 1.288 . A
C495 O508 1.229 . A
O497 H509 0.839 . S
O501 C512 1.267 . A
O502 C512 1.213 . A
C503 O510 1.171 . A
C503 O511 1.333 . A
C513 O532 1.282 . A
C513 O533 1.233 . A
C514 O524 1.291 . A
C514 O525 1.274 . A
Zn515 O519 1.930 . S
Zn515 O531 1.948 . S
Zn515 O533 2.053 . S
Zn515 O535 2.212 . S
Zn515 O538 1.929 . S
Zn516 O525 1.931 . S
Zn516 O529 1.950 . S
Zn516 O531 1.938 . S
Zn516 O532 1.954 . S
Zn517 O526 2.120 . S
Zn517 O531 1.992 . S
Zn517 O534 1.988 . S
Zn517 O537 2.121 . S
Zn518 O520 1.932 . S
Zn518 O527 1.951 . S
Zn518 O528 2.020 . S
Zn518 O531 1.885 . S
O519 C523 1.259 . A
O520 C523 1.301 . A
C521 O526 1.205 . A
C521 O527 1.262 . A
C522 O534 1.288 . A
C522 O535 1.229 . A
O524 H536 0.839 . S
O528 C539 1.267 . A
O529 C539 1.213 . A
C530 O537 1.171 . A
C530 O538 1.333 . A
C540 O559 1.282 . A
C540 O560 1.233 . A
C541 O551 1.291 . A
C541 O552 1.274 . A
Zn542 O546 1.930 . S
Zn542 O558 1.948 . S
Zn542 O560 2.053 . S
Zn542 O562 2.212 . S
Zn542 O565 1.929 . S
Zn543 O552 1.931 . S
Zn543 O556 1.950 . S
Zn543 O558 1.938 . S
Zn543 O559 1.954 . S
Zn544 O553 2.120 . S
Zn544 O558 1.992 . S
Zn544 O561 1.988 . S
Zn544 O564 2.121 . S
Zn545 O547 1.932 . S
Zn545 O554 1.951 . S
Zn545 O555 2.020 . S
Zn545 O558 1.885 . S
O546 C550 1.259 . A
O547 C550 1.301 . A
C548 O553 1.205 . A
C548 O554 1.262 . A
C549 O561 1.288 . A
C549 O562 1.229 . A
O551 H563 0.839 . S
O555 C566 1.267 . A
O556 C566 1.213 . A
C557 O564 1.171 . A
C557 O565 1.333 . A
C567 O586 1.282 . A
C567 O587 1.233 . A
C568 O578 1.291 . A
C568 O579 1.274 . A
Zn569 O573 1.930 . S
Zn569 O585 1.948 . S
Zn569 O587 2.053 . S
Zn569 O589 2.212 . S
Zn569 O592 1.929 . S
Zn570 O579 1.931 . S
Zn570 O583 1.950 . S
Zn570 O585 1.938 . S
Zn570 O586 1.954 . S
Zn571 O580 2.120 . S
Zn571 O585 1.992 . S
Zn571 O588 1.988 . S
Zn571 O591 2.121 . S
Zn572 O574 1.932 . S
Zn572 O581 1.951 . S
Zn572 O582 2.020 . S
Zn572 O585 1.885 . S
O573 C577 1.259 . A
O574 C577 1.301 . A
C575 O580 1.205 . A
C575 O581 1.262 . A
C576 O588 1.288 . A
C576 O589 1.229 . A
O578 H590 0.839 . S
O582 C593 1.267 . A
O583 C593 1.213 . A
C584 O591 1.171 . A
C584 O592 1.333 . A
C594 O613 1.282 . A
C594 O614 1.233 . A
C595 O605 1.291 . A
C595 O606 1.274 . A
Zn596 O600 1.930 . S
Zn596 O612 1.948 . S
Zn596 O614 2.053 . S
Zn596 O616 2.212 . S
Zn596 O619 1.929 . S
Zn597 O606 1.931 . S
Zn597 O610 1.950 . S
Zn597 O612 1.938 . S
Zn597 O613 1.954 . S
Zn598 O607 2.120 . S
Zn598 O612 1.992 . S
Zn598 O615 1.988 . S
Zn598 O618 2.121 . S
Zn599 O601 1.932 . S
Zn599 O608 1.951 . S
Zn599 O609 2.020 . S
Zn599 O612 1.885 . S
O600 C604 1.259 . A
O601 C604 1.301 . A
C602 O607 1.205 . A
C602 O608 1.262 . A
C603 O615 1.288 . A
C603 O616 1.229 . A
O605 H617 0.839 . S
O609 C620 1.267 . A
O610 C620 1.213 . A
C611 O618 1.171 . A
C611 O619 1.333 . A
C621 O640 1.282 . A
C621 O641 1.233 . A
C622 O632 1.291 . A
C622 O633 1.274 . A
Zn623 O627 1.930 . S
Zn623 O639 1.948 . S
Zn623 O641 2.053 . S
Zn623 O643 2.212 . S
Zn623 O646 1.929 . S
Zn624 O633 1.931 . S
Zn624 O637 1.950 . S
Zn624 O639 1.938 . S
Zn624 O640 1.954 . S
Zn625 O634 2.120 . S
Zn625 O639 1.992 . S
Zn625 O642 1.988 . S
Zn625 O645 2.121 . S
Zn626 O628 1.932 . S
Zn626 O635 1.951 . S
Zn626 O636 2.020 . S
Zn626 O639 1.885 . S
O627 C631 1.259 . A
O628 C631 1.301 . A
C629 O634 1.205 . A
C629 O635 1.262 . A
C630 O642 1.288 . A
C630 O643 1.229 . A
O632 H644 0.839 . S
O636 C647 1.267 . A
O637 C647 1.213 . A
C638 O645 1.171 . A
C638 O646 1.333 . A
C648 H653 0.970 . S
C648 H654 0.971 . S
C648 C656 1.545 . S
H649 C655 0.970 . S
H650 C655 0.970 . S
H651 C656 0.970 . S
H652 C656 0.971 . S
C655 C656 1.511 . S
C657 H662 0.970 . S
C657 H663 0.971 . S
C657 C665 1.545 . S
H658 C664 0.970 . S
H659 C664 0.970 . S
H660 C665 0.970 . S
H661 C665 0.971 . S
C664 C665 1.511 . S
C666 H671 0.970 . S
C666 H672 0.971 . S
C666 C674 1.545 . S
H667 C673 0.970 . S
H668 C673 0.970 . S
H669 C674 0.970 . S
H670 C674 0.971 . S
C673 C674 1.511 . S
C675 H680 0.970 . S
C675 H681 0.971 . S
C675 C683 1.545 . S
H676 C682 0.970 . S
H677 C682 0.970 . S
H678 C683 0.970 . S
H679 C683 0.971 . S
C682 C683 1.511 . S
C684 H689 0.970 . S
C684 H690 0.971 . S
C684 C692 1.545 . S
H685 C691 0.970 . S
H686 C691 0.970 . S
H687 C692 0.970 . S
H688 C692 0.971 . S
C691 C692 1.511 . S
C693 H698 0.970 . S
C693 H699 0.971 . S
C693 C701 1.545 . S
H694 C700 0.970 . S
H695 C700 0.970 . S
H696 C701 0.970 . S
H697 C701 0.971 . S
C700 C701 1.511 . S
C702 H707 0.970 . S
C702 H708 0.971 . S
C702 C710 1.545 . S
H703 C709 0.970 . S
H704 C709 0.970 . S
H705 C710 0.970 . S
H706 C710 0.971 . S
C709 C710 1.511 . S
C711 H716 0.970 . S
C711 H717 0.971 . S
C711 C719 1.545 . S
H712 C718 0.970 . S
H713 C718 0.970 . S
H714 C719 0.970 . S
H715 C719 0.971 . S
C718 C719 1.511 . S
C720 H725 0.970 . S
C720 H726 0.971 . S
C720 C728 1.545 . S
H721 C727 0.970 . S
H722 C727 0.970 . S
H723 C728 0.970 . S
H724 C728 0.971 . S
C727 C728 1.511 . S
C729 H734 0.970 . S
C729 H735 0.971 . S
C729 C737 1.545 . S
H730 C736 0.970 . S
H731 C736 0.970 . S
H732 C737 0.970 . S
H733 C737 0.971 . S
C736 C737 1.511 . S
C738 H743 0.970 . S
C738 H744 0.971 . S
C738 C746 1.545 . S
H739 C745 0.970 . S
H740 C745 0.970 . S
H741 C746 0.970 . S
H742 C746 0.971 . S
C745 C746 1.511 . S
C747 H752 0.970 . S
C747 H753 0.971 . S
C747 C755 1.545 . S
H748 C754 0.970 . S
H749 C754 0.970 . S
H750 C755 0.970 . S
H751 C755 0.971 . S
C754 C755 1.511 . S
C756 H761 0.970 . S
C756 H762 0.971 . S
C756 C764 1.545 . S
H757 C763 0.970 . S
H758 C763 0.970 . S
H759 C764 0.970 . S
H760 C764 0.971 . S
C763 C764 1.511 . S
C765 H770 0.970 . S
C765 H771 0.971 . S
C765 C773 1.545 . S
H766 C772 0.970 . S
H767 C772 0.970 . S
H768 C773 0.970 . S
H769 C773 0.971 . S
C772 C773 1.511 . S
C774 H779 0.970 . S
C774 H780 0.971 . S
C774 C782 1.545 . S
H775 C781 0.970 . S
H776 C781 0.970 . S
H777 C782 0.970 . S
H778 C782 0.971 . S
C781 C782 1.511 . S
C783 H788 0.970 . S
C783 H789 0.971 . S
C783 C791 1.545 . S
H784 C790 0.970 . S
H785 C790 0.970 . S
H786 C791 0.970 . S
H787 C791 0.971 . S
C790 C791 1.511 . S
C792 H797 0.970 . S
C792 H798 0.971 . S
C792 C800 1.545 . S
H793 C799 0.970 . S
H794 C799 0.970 . S
H795 C800 0.970 . S
H796 C800 0.971 . S
C799 C800 1.511 . S
C801 H806 0.970 . S
C801 H807 0.971 . S
C801 C809 1.545 . S
H802 C808 0.970 . S
H803 C808 0.970 . S
H804 C809 0.970 . S
H805 C809 0.971 . S
C808 C809 1.511 . S
C810 H815 0.970 . S
C810 H816 0.971 . S
C810 C818 1.545 . S
H811 C817 0.970 . S
H812 C817 0.970 . S
H813 C818 0.970 . S
H814 C818 0.971 . S
C817 C818 1.511 . S
C819 H824 0.970 . S
C819 H825 0.971 . S
C819 C827 1.545 . S
H820 C826 0.970 . S
H821 C826 0.970 . S
H822 C827 0.970 . S
H823 C827 0.971 . S
C826 C827 1.511 . S
C828 H833 0.970 . S
C828 H834 0.971 . S
C828 C836 1.545 . S
H829 C835 0.970 . S
H830 C835 0.970 . S
H831 C836 0.970 . S
H832 C836 0.971 . S
C835 C836 1.511 . S
C837 H842 0.970 . S
C837 H843 0.971 . S
C837 C845 1.545 . S
H838 C844 0.970 . S
H839 C844 0.970 . S
H840 C845 0.970 . S
H841 C845 0.971 . S
C844 C845 1.511 . S
C846 H851 0.970 . S
C846 H852 0.971 . S
C846 C854 1.545 . S
H847 C853 0.970 . S
H848 C853 0.970 . S
H849 C854 0.970 . S
H850 C854 0.971 . S
C853 C854 1.511 . S
C855 H860 0.970 . S
C855 H861 0.971 . S
C855 C863 1.545 . S
H856 C862 0.970 . S
H857 C862 0.970 . S
H858 C863 0.970 . S
H859 C863 0.971 . S
C862 C863 1.511 . S
C864 H869 0.970 . S
C864 H870 0.971 . S
C864 C872 1.545 1_455 S
H865 C871 0.970 . S
H866 C871 0.970 . S
H867 C872 0.970 . S
H868 C872 0.971 . S
C871 C872 1.511 . S
C873 H878 0.970 . S
C873 H879 0.971 . S
C873 C881 1.545 1_565 S
H874 C880 0.970 . S
H875 C880 0.970 . S
H876 C881 0.970 . S
H877 C881 0.971 . S
C880 C881 1.511 . S
C882 H887 0.970 . S
C882 H888 0.971 . S
C882 C890 1.545 1_455 S
H883 C889 0.970 . S
H884 C889 0.970 . S
H885 C890 0.970 . S
H886 C890 0.971 . S
C889 C890 1.511 . S
C891 H896 0.970 . S
C891 H897 0.971 . S
C891 C899 1.551 . S
H892 C898 0.970 . S
H893 C898 0.970 . S
H894 C899 0.968 1_556 S
H895 C899 0.971 1_556 S
C898 C899 1.507 1_556 S
C900 H905 0.970 . S
C900 H906 0.971 . S
C900 C908 1.580 . S
H901 C907 0.970 . S
H902 C907 0.970 . S
H903 C908 0.962 1_565 S
H904 C908 0.970 1_565 S
C907 C908 1.486 1_565 S
C909 H914 0.970 . S
C909 H915 0.971 . S
C909 C917 1.549 . S
H910 C916 0.970 . S
H911 C916 0.970 . S
H912 C917 0.968 1_545 S
H913 C917 0.971 . S
C916 C917 1.508 1_545 S
C918 H923 0.970 . S
C918 H924 0.971 . S
C918 C926 1.545 . S
H919 C925 0.970 . S
H920 C925 0.970 . S
H921 C926 0.970 1_455 S
H922 C926 0.972 . S
C925 C926 1.511 1_455 S
C927 H932 0.970 . S
C927 H933 0.971 . S
C927 C935 1.541 1_545 S
H928 C934 0.970 . S
H929 C934 0.970 . S
H930 C935 0.971 . S
H931 C935 0.972 . S
C934 C935 1.514 . S
C936 H941 0.970 . S
C936 H942 0.971 . S
C936 C944 1.545 . S
H937 C943 0.970 . S
H938 C943 0.970 . S
H939 C944 0.970 1_455 S
H940 C944 0.971 . S
C943 C944 1.511 1_455 S
C945 H950 0.970 . S
C945 H951 0.971 . S
C945 C953 1.545 1_554 S
H946 C952 0.970 . S
H947 C952 0.970 . S
H948 C953 0.970 . S
H949 C953 0.971 . S
C952 C953 1.511 . S
C954 H959 0.970 . S
C954 H960 0.971 . S
C954 C962 1.543 . S
H955 C961 0.970 . S
H956 C961 0.970 . S
H957 C962 0.970 1_556 S
H958 C962 0.971 . S
C961 C962 1.513 1_556 S
C963 H968 0.970 . S
C963 H969 0.971 . S
C963 C971 1.545 . S
H964 C970 0.970 . S
H965 C970 0.970 . S
H966 C971 0.970 1_556 S
H967 C971 0.971 . S
C970 C971 1.511 1_556 S
C972 H977 0.970 . S
C972 H978 0.971 . S
C972 C980 1.545 . S
H973 C979 0.970 . S
H974 C979 0.970 . S
H975 C980 0.970 . S
H976 C980 0.971 . S
C979 C980 1.511 . S
C981 H986 0.970 . S
C981 H987 0.971 . S
C981 C989 1.545 . S
H982 C988 0.970 . S
H983 C988 0.970 . S
H984 C989 0.970 . S
H985 C989 0.971 . S
C988 C989 1.511 . S
C990 H995 0.970 . S
C990 H996 0.971 . S
C990 C998 1.545 . S
H991 C997 0.970 . S
H992 C997 0.970 . S
H993 C998 0.970 . S
H994 C998 0.971 . S
C997 C998 1.511 . S
C999 H1004 0.970 . S
C999 H1005 0.971 . S
C999 C1007 1.545 . S
H1000 C1006 0.970 . S
H1001 C1006 0.970 . S
H1002 C1007 0.970 . S
H1003 C1007 0.971 . S
C1006 C1007 1.511 . S
C1008 H1013 0.970 . S
C1008 H1014 0.971 . S
C1008 C1016 1.545 . S
H1009 C1015 0.970 . S
H1010 C1015 0.970 . S
H1011 C1016 0.970 . S
H1012 C1016 0.971 . S
C1015 C1016 1.511 . S
C1017 H1022 0.970 . S
C1017 H1023 0.971 . S
C1017 C1025 1.545 . S
H1018 C1024 0.970 . S
H1019 C1024 0.970 . S
H1020 C1025 0.970 . S
H1021 C1025 0.971 . S
C1024 C1025 1.511 . S
C1026 H1031 0.970 . S
C1026 H1032 0.971 . S
C1026 C1034 1.545 . S
H1027 C1033 0.970 . S
H1028 C1033 0.970 . S
H1029 C1034 0.970 . S
H1030 C1034 0.971 . S
C1033 C1034 1.511 . S
C1035 H1040 0.970 . S
C1035 H1041 0.971 . S
C1035 C1043 1.545 . S
H1036 C1042 0.970 . S
H1037 C1042 0.970 . S
H1038 C1043 0.970 . S
H1039 C1043 0.971 . S
C1042 C1043 1.511 . S
C1044 H1049 0.970 . S
C1044 H1050 0.971 . S
C1044 C1052 1.545 . S
H1045 C1051 0.970 . S
H1046 C1051 0.970 . S
H1047 C1052 0.970 . S
H1048 C1052 0.971 . S
C1051 C1052 1.511 . S
C1053 H1058 0.970 . S
C1053 H1059 0.971 . S
C1053 C1061 1.545 . S
H1054 C1060 0.970 . S
H1055 C1060 0.970 . S
H1056 C1061 0.970 . S
H1057 C1061 0.971 . S
C1060 C1061 1.511 . S
C1062 H1067 0.970 . S
C1062 H1068 0.971 . S
C1062 C1070 1.545 . S
H1063 C1069 0.970 . S
H1064 C1069 0.970 . S
H1065 C1070 0.970 . S
H1066 C1070 0.971 . S
C1069 C1070 1.511 . S
C1071 H1076 0.970 . S
C1071 H1077 0.971 . S
C1071 C1079 1.545 . S
H1072 C1078 0.970 . S
H1073 C1078 0.970 . S
H1074 C1079 0.970 . S
H1075 C1079 0.971 . S
C1078 C1079 1.511 . S
C648 C386 1.158 . S
C655 C17 1.410 . S
C657 C44 1.313 . S
C664 C278 1.456 . S
C666 C305 1.300 . S
C673 C71 1.455 . S
C675 C224 1.296 . S
C682 C98 1.455 . S
C684 C332 1.073 . S
C691 C125 1.356 . S
C693 C413 1.290 . S
C700 C152 1.440 . S
C702 C494 1.088 . S
C709 C179 1.381 . S
C711 C584 1.262 . S
C718 C89 1.436 . S
C720 C260 1.260 . S
C727 C116 1.454 . S
C729 C197 1.228 . S
C736 C233 1.409 . S
C738 C611 1.080 . S
C745 C251 1.389 . S
C747 C359 1.230 . S
C754 C638 1.410 . S
C756 C368 1.087 . S
C763 C35 1.410 . S
C765 C575 1.130 . S
C772 C206 1.398 . S
C774 C422 1.249 . S
C781 C521 1.432 . S
C783 C170 1.199 . S
C790 C449 1.425 . S
C792 C440 1.225 . S
C799 C476 1.408 . S
C801 C467 1.141 . S
C808 C503 1.376 . S
C810 C530 1.307 . S
C817 C548 1.453 . S
C819 C557 1.248 . S
C826 C143 1.432 . S
C828 C395 1.273 . S
C835 C62 1.457 . S
C837 C341 1.067 . S
C844 C602 1.386 . S
C846 C287 1.194 . S
C853 C629 1.416 . S
C855 C8 1.285 . S
C862 C314 1.453 . S
C864 C595 1.464 . S
C871 C1 1.679 . S
C873 C82 1.492 . S
C880 C28 1.680 . S
C882 C109 1.538 . S
C889 C55 1.678 . S
C891 C163 1.497 . S
C898 C136 1.559 . S
C900 C622 1.338 . S
C907 C190 1.512 . S
C909 C217 1.109 . S
C916 C352 1.596 . S
C918 C298 1.234 . S
C925 C244 1.499 . S
C927 C271 1.558 . S
C934 C568 1.591 . S
C936 C379 1.126 . S
C943 C325 1.499 . S
C945 C433 1.479 . S
C952 C406 1.680 . S
C954 C460 1.137 . S
C961 C514 1.608 . S
C963 C487 1.052 . S
C970 C541 1.516 . S
C972 C145 1.297 . S
C979 C10 1.457 . S
C981 C37 1.092 . S
C988 C496 1.450 . S
C990 C172 1.168 . S
C997 C64 1.482 . S
C999 C91 1.084 . S
C1006 C442 1.430 . S
C1008 C118 1.107 . S
C1015 C469 1.459 . S
C1017 C199 1.334 . S
C1024 C415 1.495 . S
C1026 C253 1.088 . S
C1033 C226 1.427 . S
C1035 C388 1.153 . S
C1042 C280 1.478 . S
C1044 C577 1.282 . S
C1051 C307 1.451 . S
C1053 C334 1.116 . S
C1060 C361 1.463 . S
C1062 C604 1.328 . S
C1069 C523 1.476 . S
C1071 C631 1.305 . S
C1078 C550 1.503 . S
