# Generated by pormake.
# Topology lta, (4)-cn, num edge types: 1
# Building blocks:
#     Node 0, Type 0, BuildingBlock: N671, # of connection points: 5
#     Node 1, Type 0, BuildingBlock: N671, # of connection points: 5
#     Node 2, Type 0, BuildingBlock: N671, # of connection points: 5
#     Node 3, Type 0, BuildingBlock: N671, # of connection points: 5
#     Node 4, Type 0, BuildingBlock: N671, # of connection points: 5
#     Node 5, Type 0, BuildingBlock: N671, # of connection points: 5
#     Node 6, Type 0, BuildingBlock: N671, # of connection points: 5
#     Node 7, Type 0, BuildingBlock: N671, # of connection points: 5
#     Node 8, Type 0, BuildingBlock: N671, # of connection points: 5
#     Node 9, Type 0, BuildingBlock: N671, # of connection points: 5
#     Node 10, Type 0, BuildingBlock: N671, # of connection points: 5
#     Node 11, Type 0, BuildingBlock: N671, # of connection points: 5
#     Node 12, Type 0, BuildingBlock: N671, # of connection points: 5
#     Node 13, Type 0, BuildingBlock: N671, # of connection points: 5
#     Node 14, Type 0, BuildingBlock: N671, # of connection points: 5
#     Node 15, Type 0, BuildingBlock: N671, # of connection points: 5
#     Node 16, Type 0, BuildingBlock: N671, # of connection points: 5
#     Node 17, Type 0, BuildingBlock: N671, # of connection points: 5
#     Node 18, Type 0, BuildingBlock: N671, # of connection points: 5
#     Node 19, Type 0, BuildingBlock: N671, # of connection points: 5
#     Node 20, Type 0, BuildingBlock: N671, # of connection points: 5
#     Node 21, Type 0, BuildingBlock: N671, # of connection points: 5
#     Node 22, Type 0, BuildingBlock: N671, # of connection points: 5
#     Node 23, Type 0, BuildingBlock: N671, # of connection points: 5
#     Edge 24, Type (0, 0), BuildingBlock: E132, # of connection points: 2
#     Edge 25, Type (0, 0), BuildingBlock: E132, # of connection points: 2
#     Edge 26, Type (0, 0), BuildingBlock: E132, # of connection points: 2
#     Edge 27, Type (0, 0), BuildingBlock: E132, # of connection points: 2
#     Edge 28, Type (0, 0), BuildingBlock: E132, # of connection points: 2
#     Edge 29, Type (0, 0), BuildingBlock: E132, # of connection points: 2
#     Edge 30, Type (0, 0), BuildingBlock: E132, # of connection points: 2
#     Edge 31, Type (0, 0), BuildingBlock: E132, # of connection points: 2
#     Edge 32, Type (0, 0), BuildingBlock: E132, # of connection points: 2
#     Edge 33, Type (0, 0), BuildingBlock: E132, # of connection points: 2
#     Edge 34, Type (0, 0), BuildingBlock: E132, # of connection points: 2
#     Edge 35, Type (0, 0), BuildingBlock: E132, # of connection points: 2
#     Edge 36, Type (0, 0), BuildingBlock: E132, # of connection points: 2
#     Edge 37, Type (0, 0), BuildingBlock: E132, # of connection points: 2
#     Edge 38, Type (0, 0), BuildingBlock: E132, # of connection points: 2
#     Edge 39, Type (0, 0), BuildingBlock: E132, # of connection points: 2
#     Edge 40, Type (0, 0), BuildingBlock: E132, # of connection points: 2
#     Edge 41, Type (0, 0), BuildingBlock: E132, # of connection points: 2
#     Edge 42, Type (0, 0), BuildingBlock: E132, # of connection points: 2
#     Edge 43, Type (0, 0), BuildingBlock: E132, # of connection points: 2
#     Edge 44, Type (0, 0), BuildingBlock: E132, # of connection points: 2
#     Edge 45, Type (0, 0), BuildingBlock: E132, # of connection points: 2
#     Edge 46, Type (0, 0), BuildingBlock: E132, # of connection points: 2
#     Edge 47, Type (0, 0), BuildingBlock: E132, # of connection points: 2
#     Edge 48, Type (0, 0), BuildingBlock: E132, # of connection points: 2
#     Edge 49, Type (0, 0), BuildingBlock: E132, # of connection points: 2
#     Edge 50, Type (0, 0), BuildingBlock: E132, # of connection points: 2
#     Edge 51, Type (0, 0), BuildingBlock: E132, # of connection points: 2
#     Edge 52, Type (0, 0), BuildingBlock: E132, # of connection points: 2
#     Edge 53, Type (0, 0), BuildingBlock: E132, # of connection points: 2
#     Edge 54, Type (0, 0), BuildingBlock: E132, # of connection points: 2
#     Edge 55, Type (0, 0), BuildingBlock: E132, # of connection points: 2
#     Edge 56, Type (0, 0), BuildingBlock: E132, # of connection points: 2
#     Edge 57, Type (0, 0), BuildingBlock: E132, # of connection points: 2
#     Edge 58, Type (0, 0), BuildingBlock: E132, # of connection points: 2
#     Edge 59, Type (0, 0), BuildingBlock: E132, # of connection points: 2
#     Edge 60, Type (0, 0), BuildingBlock: E132, # of connection points: 2
#     Edge 61, Type (0, 0), BuildingBlock: E132, # of connection points: 2
#     Edge 62, Type (0, 0), BuildingBlock: E132, # of connection points: 2
#     Edge 63, Type (0, 0), BuildingBlock: E132, # of connection points: 2
#     Edge 64, Type (0, 0), BuildingBlock: E132, # of connection points: 2
#     Edge 65, Type (0, 0), BuildingBlock: E132, # of connection points: 2
#     Edge 66, Type (0, 0), BuildingBlock: E132, # of connection points: 2
#     Edge 67, Type (0, 0), BuildingBlock: E132, # of connection points: 2
#     Edge 68, Type (0, 0), BuildingBlock: E132, # of connection points: 2
#     Edge 69, Type (0, 0), BuildingBlock: E132, # of connection points: 2
#     Edge 70, Type (0, 0), BuildingBlock: E132, # of connection points: 2
#     Edge 71, Type (0, 0), BuildingBlock: E132, # of connection points: 2
# Relax obj value: 0.037
# Max RMSD: 0.170
# Mean RMSD: 0.170
data_lta+N671+E132
_symmetry_space_group_name_H-M    P1
_symmetry_Int_Tables_number       1
_symmetry_cell_setting            triclinic
loop_
_symmetry_equiv_pos_as_xyz
'x, y, z'
_cell_length_a     44.413
_cell_length_b     44.413
_cell_length_c     44.413
_cell_angle_alpha  90.000
_cell_angle_beta   90.000
_cell_angle_gamma  90.000
loop_
_atom_site_label
_atom_site_type_symbol
_atom_site_fract_x
_atom_site_fract_y
_atom_site_fract_z
_atom_type_partial_charge
Zn0 Zn 0.89299 0.48465 0.65313 0.00000
Zn1 Zn 0.83542 0.45175 0.68758 0.00000
Zn2 Zn 0.88347 0.49365 0.72686 0.00000
C3 C 0.88440 0.42895 0.73053 0.00000
O4 O 0.92644 0.50687 0.70879 0.00000
O5 O 0.93395 0.47692 0.66968 0.00000
O6 O 0.89620 0.52436 0.63375 0.00000
O7 O 0.85035 0.51842 0.62785 0.00000
C8 C 0.81775 0.48417 0.74288 0.00000
C9 C 0.87272 0.43188 0.62979 0.00000
C10 C 0.94343 0.49384 0.68990 0.00000
O11 O 0.86265 0.42636 0.65611 0.00000
O12 O 0.88671 0.45548 0.62158 0.00000
O13 O 0.86464 0.48873 0.68578 0.00000
O14 O 0.89774 0.45336 0.73796 0.00000
O15 O 0.85972 0.42715 0.71594 0.00000
O16 O 0.80928 0.47067 0.71909 0.00000
O17 O 0.84201 0.49495 0.74828 0.00000
H18 H 0.85075 0.50716 0.64305 0.00000
C19 C 0.87131 0.53830 0.63005 0.00000
Zn20 Zn 0.51535 0.10701 0.34687 0.00000
Zn21 Zn 0.54825 0.16458 0.31242 0.00000
Zn22 Zn 0.50635 0.11653 0.27314 0.00000
C23 C 0.57105 0.11560 0.26947 0.00000
O24 O 0.49313 0.07356 0.29121 0.00000
O25 O 0.52308 0.06605 0.33032 0.00000
O26 O 0.47564 0.10380 0.36625 0.00000
O27 O 0.48158 0.14965 0.37215 0.00000
C28 C 0.51583 0.18225 0.25712 0.00000
C29 C 0.56812 0.12728 0.37021 0.00000
C30 C 0.50616 0.05657 0.31010 0.00000
O31 O 0.57364 0.13735 0.34389 0.00000
O32 O 0.54452 0.11329 0.37842 0.00000
O33 O 0.51127 0.13536 0.31422 0.00000
O34 O 0.54664 0.10226 0.26204 0.00000
O35 O 0.57285 0.14028 0.28406 0.00000
O36 O 0.52933 0.19072 0.28091 0.00000
O37 O 0.50505 0.15799 0.25172 0.00000
H38 H 0.49284 0.14925 0.35695 0.00000
C39 C 0.46170 0.12869 0.36995 0.00000
Zn40 Zn 0.89299 0.51535 0.34687 0.00000
Zn41 Zn 0.83542 0.54825 0.31242 0.00000
Zn42 Zn 0.88347 0.50635 0.27314 0.00000
C43 C 0.88440 0.57105 0.26947 0.00000
O44 O 0.92644 0.49313 0.29121 0.00000
O45 O 0.93395 0.52308 0.33032 0.00000
O46 O 0.89620 0.47564 0.36625 0.00000
O47 O 0.85035 0.48158 0.37215 0.00000
C48 C 0.81775 0.51583 0.25712 0.00000
C49 C 0.87272 0.56812 0.37021 0.00000
C50 C 0.94343 0.50616 0.31010 0.00000
O51 O 0.86265 0.57364 0.34389 0.00000
O52 O 0.88671 0.54452 0.37842 0.00000
O53 O 0.86464 0.51127 0.31422 0.00000
O54 O 0.89774 0.54664 0.26204 0.00000
O55 O 0.85972 0.57285 0.28406 0.00000
O56 O 0.80928 0.52933 0.28091 0.00000
O57 O 0.84201 0.50505 0.25172 0.00000
H58 H 0.85075 0.49284 0.35695 0.00000
C59 C 0.87131 0.46170 0.36995 0.00000
Zn60 Zn 0.48465 0.89299 0.34687 0.00000
Zn61 Zn 0.45175 0.83542 0.31242 0.00000
Zn62 Zn 0.49365 0.88347 0.27314 0.00000
C63 C 0.42895 0.88440 0.26947 0.00000
O64 O 0.50687 0.92644 0.29121 0.00000
O65 O 0.47692 0.93395 0.33032 0.00000
O66 O 0.52436 0.89620 0.36625 0.00000
O67 O 0.51842 0.85035 0.37215 0.00000
C68 C 0.48417 0.81775 0.25712 0.00000
C69 C 0.43188 0.87272 0.37021 0.00000
C70 C 0.49384 0.94343 0.31010 0.00000
O71 O 0.42636 0.86265 0.34389 0.00000
O72 O 0.45548 0.88671 0.37842 0.00000
O73 O 0.48873 0.86464 0.31422 0.00000
O74 O 0.45336 0.89774 0.26204 0.00000
O75 O 0.42715 0.85972 0.28406 0.00000
O76 O 0.47067 0.80928 0.28091 0.00000
O77 O 0.49495 0.84201 0.25172 0.00000
H78 H 0.50716 0.85075 0.35695 0.00000
C79 C 0.53830 0.87131 0.36995 0.00000
Zn80 Zn 0.10701 0.48465 0.34687 0.00000
Zn81 Zn 0.16458 0.45175 0.31242 0.00000
Zn82 Zn 0.11653 0.49365 0.27314 0.00000
C83 C 0.11560 0.42895 0.26947 0.00000
O84 O 0.07356 0.50687 0.29121 0.00000
O85 O 0.06605 0.47692 0.33032 0.00000
O86 O 0.10380 0.52436 0.36625 0.00000
O87 O 0.14965 0.51842 0.37215 0.00000
C88 C 0.18225 0.48417 0.25712 0.00000
C89 C 0.12728 0.43188 0.37021 0.00000
C90 C 0.05657 0.49384 0.31010 0.00000
O91 O 0.13735 0.42636 0.34389 0.00000
O92 O 0.11329 0.45548 0.37842 0.00000
O93 O 0.13536 0.48873 0.31422 0.00000
O94 O 0.10226 0.45336 0.26204 0.00000
O95 O 0.14028 0.42715 0.28406 0.00000
O96 O 0.19072 0.47067 0.28091 0.00000
O97 O 0.15799 0.49495 0.25172 0.00000
H98 H 0.14925 0.50716 0.35695 0.00000
C99 C 0.12869 0.53830 0.36995 0.00000
Zn100 Zn 0.65313 0.51535 0.89299 0.00000
Zn101 Zn 0.68758 0.54825 0.83542 0.00000
Zn102 Zn 0.72686 0.50635 0.88347 0.00000
C103 C 0.73053 0.57105 0.88440 0.00000
O104 O 0.70879 0.49313 0.92644 0.00000
O105 O 0.66968 0.52308 0.93395 0.00000
O106 O 0.63375 0.47564 0.89620 0.00000
O107 O 0.62785 0.48158 0.85035 0.00000
C108 C 0.74288 0.51583 0.81775 0.00000
C109 C 0.62979 0.56812 0.87272 0.00000
C110 C 0.68990 0.50616 0.94343 0.00000
O111 O 0.65611 0.57364 0.86265 0.00000
O112 O 0.62158 0.54452 0.88671 0.00000
O113 O 0.68578 0.51127 0.86464 0.00000
O114 O 0.73796 0.54664 0.89774 0.00000
O115 O 0.71594 0.57285 0.85972 0.00000
O116 O 0.71909 0.52933 0.80928 0.00000
O117 O 0.74828 0.50505 0.84201 0.00000
H118 H 0.64305 0.49284 0.85075 0.00000
C119 C 0.63005 0.46170 0.87131 0.00000
Zn120 Zn 0.65313 0.48465 0.10701 0.00000
Zn121 Zn 0.68758 0.45175 0.16458 0.00000
Zn122 Zn 0.72686 0.49365 0.11653 0.00000
C123 C 0.73053 0.42895 0.11560 0.00000
O124 O 0.70879 0.50687 0.07356 0.00000
O125 O 0.66968 0.47692 0.06605 0.00000
O126 O 0.63375 0.52436 0.10380 0.00000
O127 O 0.62785 0.51842 0.14965 0.00000
C128 C 0.74288 0.48417 0.18225 0.00000
C129 C 0.62979 0.43188 0.12728 0.00000
C130 C 0.68990 0.49384 0.05657 0.00000
O131 O 0.65611 0.42636 0.13735 0.00000
O132 O 0.62158 0.45548 0.11329 0.00000
O133 O 0.68578 0.48873 0.13536 0.00000
O134 O 0.73796 0.45336 0.10226 0.00000
O135 O 0.71594 0.42715 0.14028 0.00000
O136 O 0.71909 0.47067 0.19072 0.00000
O137 O 0.74828 0.49495 0.15799 0.00000
H138 H 0.64305 0.50716 0.14925 0.00000
C139 C 0.63005 0.53830 0.12869 0.00000
Zn140 Zn 0.51535 0.89299 0.65313 0.00000
Zn141 Zn 0.54825 0.83542 0.68758 0.00000
Zn142 Zn 0.50635 0.88347 0.72686 0.00000
C143 C 0.57105 0.88440 0.73053 0.00000
O144 O 0.49313 0.92644 0.70879 0.00000
O145 O 0.52308 0.93395 0.66968 0.00000
O146 O 0.47564 0.89620 0.63375 0.00000
O147 O 0.48158 0.85035 0.62785 0.00000
C148 C 0.51583 0.81775 0.74288 0.00000
C149 C 0.56812 0.87272 0.62979 0.00000
C150 C 0.50616 0.94343 0.68990 0.00000
O151 O 0.57364 0.86265 0.65611 0.00000
O152 O 0.54452 0.88671 0.62158 0.00000
O153 O 0.51127 0.86464 0.68578 0.00000
O154 O 0.54664 0.89774 0.73796 0.00000
O155 O 0.57285 0.85972 0.71594 0.00000
O156 O 0.52933 0.80928 0.71909 0.00000
O157 O 0.50505 0.84201 0.74828 0.00000
H158 H 0.49284 0.85075 0.64305 0.00000
C159 C 0.46170 0.87131 0.63005 0.00000
Zn160 Zn 0.34687 0.89299 0.51535 0.00000
Zn161 Zn 0.31242 0.83542 0.54825 0.00000
Zn162 Zn 0.27314 0.88347 0.50635 0.00000
C163 C 0.26947 0.88440 0.57105 0.00000
O164 O 0.29121 0.92644 0.49313 0.00000
O165 O 0.33032 0.93395 0.52308 0.00000
O166 O 0.36625 0.89620 0.47564 0.00000
O167 O 0.37215 0.85035 0.48158 0.00000
C168 C 0.25712 0.81775 0.51583 0.00000
C169 C 0.37021 0.87272 0.56812 0.00000
C170 C 0.31010 0.94343 0.50616 0.00000
O171 O 0.34389 0.86265 0.57364 0.00000
O172 O 0.37842 0.88671 0.54452 0.00000
O173 O 0.31422 0.86464 0.51127 0.00000
O174 O 0.26204 0.89774 0.54664 0.00000
O175 O 0.28406 0.85972 0.57285 0.00000
O176 O 0.28091 0.80928 0.52933 0.00000
O177 O 0.25172 0.84201 0.50505 0.00000
H178 H 0.35695 0.85075 0.49284 0.00000
C179 C 0.36995 0.87131 0.46170 0.00000
Zn180 Zn 0.10701 0.65313 0.48465 0.00000
Zn181 Zn 0.16458 0.68758 0.45175 0.00000
Zn182 Zn 0.11653 0.72686 0.49365 0.00000
C183 C 0.11560 0.73053 0.42895 0.00000
O184 O 0.07356 0.70879 0.50687 0.00000
O185 O 0.06605 0.66968 0.47692 0.00000
O186 O 0.10380 0.63375 0.52436 0.00000
O187 O 0.14965 0.62785 0.51842 0.00000
C188 C 0.18225 0.74288 0.48417 0.00000
C189 C 0.12728 0.62979 0.43188 0.00000
C190 C 0.05657 0.68990 0.49384 0.00000
O191 O 0.13735 0.65611 0.42636 0.00000
O192 O 0.11329 0.62158 0.45548 0.00000
O193 O 0.13536 0.68578 0.48873 0.00000
O194 O 0.10226 0.73796 0.45336 0.00000
O195 O 0.14028 0.71594 0.42715 0.00000
O196 O 0.19072 0.71909 0.47067 0.00000
O197 O 0.15799 0.74828 0.49495 0.00000
H198 H 0.14925 0.64305 0.50716 0.00000
C199 C 0.12869 0.63005 0.53830 0.00000
Zn200 Zn 0.65313 0.10701 0.51535 0.00000
Zn201 Zn 0.68758 0.16458 0.54825 0.00000
Zn202 Zn 0.72686 0.11653 0.50635 0.00000
C203 C 0.73053 0.11560 0.57105 0.00000
O204 O 0.70879 0.07356 0.49313 0.00000
O205 O 0.66968 0.06605 0.52308 0.00000
O206 O 0.63375 0.10380 0.47564 0.00000
O207 O 0.62785 0.14965 0.48158 0.00000
C208 C 0.74288 0.18225 0.51583 0.00000
C209 C 0.62979 0.12728 0.56812 0.00000
C210 C 0.68990 0.05657 0.50616 0.00000
O211 O 0.65611 0.13735 0.57364 0.00000
O212 O 0.62158 0.11329 0.54452 0.00000
O213 O 0.68578 0.13536 0.51127 0.00000
O214 O 0.73796 0.10226 0.54664 0.00000
O215 O 0.71594 0.14028 0.57285 0.00000
O216 O 0.71909 0.19072 0.52933 0.00000
O217 O 0.74828 0.15799 0.50505 0.00000
H218 H 0.64305 0.14925 0.49284 0.00000
C219 C 0.63005 0.12869 0.46170 0.00000
Zn220 Zn 0.89299 0.65313 0.51535 0.00000
Zn221 Zn 0.83542 0.68758 0.54825 0.00000
Zn222 Zn 0.88347 0.72686 0.50635 0.00000
C223 C 0.88440 0.73053 0.57105 0.00000
O224 O 0.92644 0.70879 0.49313 0.00000
O225 O 0.93395 0.66968 0.52308 0.00000
O226 O 0.89620 0.63375 0.47564 0.00000
O227 O 0.85035 0.62785 0.48158 0.00000
C228 C 0.81775 0.74288 0.51583 0.00000
C229 C 0.87272 0.62979 0.56812 0.00000
C230 C 0.94343 0.68990 0.50616 0.00000
O231 O 0.86265 0.65611 0.57364 0.00000
O232 O 0.88671 0.62158 0.54452 0.00000
O233 O 0.86464 0.68578 0.51127 0.00000
O234 O 0.89774 0.73796 0.54664 0.00000
O235 O 0.85972 0.71594 0.57285 0.00000
O236 O 0.80928 0.71909 0.52933 0.00000
O237 O 0.84201 0.74828 0.50505 0.00000
H238 H 0.85075 0.64305 0.49284 0.00000
C239 C 0.87131 0.63005 0.46170 0.00000
Zn240 Zn 0.10701 0.34687 0.51535 0.00000
Zn241 Zn 0.16458 0.31242 0.54825 0.00000
Zn242 Zn 0.11653 0.27314 0.50635 0.00000
C243 C 0.11560 0.26947 0.57105 0.00000
O244 O 0.07356 0.29121 0.49313 0.00000
O245 O 0.06605 0.33032 0.52308 0.00000
O246 O 0.10380 0.36625 0.47564 0.00000
O247 O 0.14965 0.37215 0.48158 0.00000
C248 C 0.18225 0.25712 0.51583 0.00000
C249 C 0.12728 0.37021 0.56812 0.00000
C250 C 0.05657 0.31010 0.50616 0.00000
O251 O 0.13735 0.34389 0.57364 0.00000
O252 O 0.11329 0.37842 0.54452 0.00000
O253 O 0.13536 0.31422 0.51127 0.00000
O254 O 0.10226 0.26204 0.54664 0.00000
O255 O 0.14028 0.28406 0.57285 0.00000
O256 O 0.19072 0.28091 0.52933 0.00000
O257 O 0.15799 0.25172 0.50505 0.00000
H258 H 0.14925 0.35695 0.49284 0.00000
C259 C 0.12869 0.36995 0.46170 0.00000
Zn260 Zn 0.34687 0.10701 0.48465 0.00000
Zn261 Zn 0.31242 0.16458 0.45175 0.00000
Zn262 Zn 0.27314 0.11653 0.49365 0.00000
C263 C 0.26947 0.11560 0.42895 0.00000
O264 O 0.29121 0.07356 0.50687 0.00000
O265 O 0.33032 0.06605 0.47692 0.00000
O266 O 0.36625 0.10380 0.52436 0.00000
O267 O 0.37215 0.14965 0.51842 0.00000
C268 C 0.25712 0.18225 0.48417 0.00000
C269 C 0.37021 0.12728 0.43188 0.00000
C270 C 0.31010 0.05657 0.49384 0.00000
O271 O 0.34389 0.13735 0.42636 0.00000
O272 O 0.37842 0.11329 0.45548 0.00000
O273 O 0.31422 0.13536 0.48873 0.00000
O274 O 0.26204 0.10226 0.45336 0.00000
O275 O 0.28406 0.14028 0.42715 0.00000
O276 O 0.28091 0.19072 0.47067 0.00000
O277 O 0.25172 0.15799 0.49495 0.00000
H278 H 0.35695 0.14925 0.50716 0.00000
C279 C 0.36995 0.12869 0.53830 0.00000
Zn280 Zn 0.89299 0.34687 0.48465 0.00000
Zn281 Zn 0.83542 0.31242 0.45175 0.00000
Zn282 Zn 0.88347 0.27314 0.49365 0.00000
C283 C 0.88440 0.26947 0.42895 0.00000
O284 O 0.92644 0.29121 0.50687 0.00000
O285 O 0.93395 0.33032 0.47692 0.00000
O286 O 0.89620 0.36625 0.52436 0.00000
O287 O 0.85035 0.37215 0.51842 0.00000
C288 C 0.81775 0.25712 0.48417 0.00000
C289 C 0.87272 0.37021 0.43188 0.00000
C290 C 0.94343 0.31010 0.49384 0.00000
O291 O 0.86265 0.34389 0.42636 0.00000
O292 O 0.88671 0.37842 0.45548 0.00000
O293 O 0.86464 0.31422 0.48873 0.00000
O294 O 0.89774 0.26204 0.45336 0.00000
O295 O 0.85972 0.28406 0.42715 0.00000
O296 O 0.80928 0.28091 0.47067 0.00000
O297 O 0.84201 0.25172 0.49495 0.00000
H298 H 0.85075 0.35695 0.50716 0.00000
C299 C 0.87131 0.36995 0.53830 0.00000
Zn300 Zn 0.48465 0.65313 0.89299 0.00000
Zn301 Zn 0.45175 0.68758 0.83542 0.00000
Zn302 Zn 0.49365 0.72686 0.88347 0.00000
C303 C 0.42895 0.73053 0.88440 0.00000
O304 O 0.50687 0.70879 0.92644 0.00000
O305 O 0.47692 0.66968 0.93395 0.00000
O306 O 0.52436 0.63375 0.89620 0.00000
O307 O 0.51842 0.62785 0.85035 0.00000
C308 C 0.48417 0.74288 0.81775 0.00000
C309 C 0.43188 0.62979 0.87272 0.00000
C310 C 0.49384 0.68990 0.94343 0.00000
O311 O 0.42636 0.65611 0.86265 0.00000
O312 O 0.45548 0.62158 0.88671 0.00000
O313 O 0.48873 0.68578 0.86464 0.00000
O314 O 0.45336 0.73796 0.89774 0.00000
O315 O 0.42715 0.71594 0.85972 0.00000
O316 O 0.47067 0.71909 0.80928 0.00000
O317 O 0.49495 0.74828 0.84201 0.00000
H318 H 0.50716 0.64305 0.85075 0.00000
C319 C 0.53830 0.63005 0.87131 0.00000
Zn320 Zn 0.51535 0.65313 0.10701 0.00000
Zn321 Zn 0.54825 0.68758 0.16458 0.00000
Zn322 Zn 0.50635 0.72686 0.11653 0.00000
C323 C 0.57105 0.73053 0.11560 0.00000
O324 O 0.49313 0.70879 0.07356 0.00000
O325 O 0.52308 0.66968 0.06605 0.00000
O326 O 0.47564 0.63375 0.10380 0.00000
O327 O 0.48158 0.62785 0.14965 0.00000
C328 C 0.51583 0.74288 0.18225 0.00000
C329 C 0.56812 0.62979 0.12728 0.00000
C330 C 0.50616 0.68990 0.05657 0.00000
O331 O 0.57364 0.65611 0.13735 0.00000
O332 O 0.54452 0.62158 0.11329 0.00000
O333 O 0.51127 0.68578 0.13536 0.00000
O334 O 0.54664 0.73796 0.10226 0.00000
O335 O 0.57285 0.71594 0.14028 0.00000
O336 O 0.52933 0.71909 0.19072 0.00000
O337 O 0.50505 0.74828 0.15799 0.00000
H338 H 0.49284 0.64305 0.14925 0.00000
C339 C 0.46170 0.63005 0.12869 0.00000
Zn340 Zn 0.34687 0.51535 0.10701 0.00000
Zn341 Zn 0.31242 0.54825 0.16458 0.00000
Zn342 Zn 0.27314 0.50635 0.11653 0.00000
C343 C 0.26947 0.57105 0.11560 0.00000
O344 O 0.29121 0.49313 0.07356 0.00000
O345 O 0.33032 0.52308 0.06605 0.00000
O346 O 0.36625 0.47564 0.10380 0.00000
O347 O 0.37215 0.48158 0.14965 0.00000
C348 C 0.25712 0.51583 0.18225 0.00000
C349 C 0.37021 0.56812 0.12728 0.00000
C350 C 0.31010 0.50616 0.05657 0.00000
O351 O 0.34389 0.57364 0.13735 0.00000
O352 O 0.37842 0.54452 0.11329 0.00000
O353 O 0.31422 0.51127 0.13536 0.00000
O354 O 0.26204 0.54664 0.10226 0.00000
O355 O 0.28406 0.57285 0.14028 0.00000
O356 O 0.28091 0.52933 0.19072 0.00000
O357 O 0.25172 0.50505 0.15799 0.00000
H358 H 0.35695 0.49284 0.14925 0.00000
C359 C 0.36995 0.46170 0.12869 0.00000
Zn360 Zn 0.48465 0.34687 0.10701 0.00000
Zn361 Zn 0.45175 0.31242 0.16458 0.00000
Zn362 Zn 0.49365 0.27314 0.11653 0.00000
C363 C 0.42895 0.26947 0.11560 0.00000
O364 O 0.50687 0.29121 0.07356 0.00000
O365 O 0.47692 0.33032 0.06605 0.00000
O366 O 0.52436 0.36625 0.10380 0.00000
O367 O 0.51842 0.37215 0.14965 0.00000
C368 C 0.48417 0.25712 0.18225 0.00000
C369 C 0.43188 0.37021 0.12728 0.00000
C370 C 0.49384 0.31010 0.05657 0.00000
O371 O 0.42636 0.34389 0.13735 0.00000
O372 O 0.45548 0.37842 0.11329 0.00000
O373 O 0.48873 0.31422 0.13536 0.00000
O374 O 0.45336 0.26204 0.10226 0.00000
O375 O 0.42715 0.28406 0.14028 0.00000
O376 O 0.47067 0.28091 0.19072 0.00000
O377 O 0.49495 0.25172 0.15799 0.00000
H378 H 0.50716 0.35695 0.14925 0.00000
C379 C 0.53830 0.36995 0.12869 0.00000
Zn380 Zn 0.34687 0.48465 0.89299 0.00000
Zn381 Zn 0.31242 0.45175 0.83542 0.00000
Zn382 Zn 0.27314 0.49365 0.88347 0.00000
C383 C 0.26947 0.42895 0.88440 0.00000
O384 O 0.29121 0.50687 0.92644 0.00000
O385 O 0.33032 0.47692 0.93395 0.00000
O386 O 0.36625 0.52436 0.89620 0.00000
O387 O 0.37215 0.51842 0.85035 0.00000
C388 C 0.25712 0.48417 0.81775 0.00000
C389 C 0.37021 0.43188 0.87272 0.00000
C390 C 0.31010 0.49384 0.94343 0.00000
O391 O 0.34389 0.42636 0.86265 0.00000
O392 O 0.37842 0.45548 0.88671 0.00000
O393 O 0.31422 0.48873 0.86464 0.00000
O394 O 0.26204 0.45336 0.89774 0.00000
O395 O 0.28406 0.42715 0.85972 0.00000
O396 O 0.28091 0.47067 0.80928 0.00000
O397 O 0.25172 0.49495 0.84201 0.00000
H398 H 0.35695 0.50716 0.85075 0.00000
C399 C 0.36995 0.53830 0.87131 0.00000
Zn400 Zn 0.51535 0.34687 0.89299 0.00000
Zn401 Zn 0.54825 0.31242 0.83542 0.00000
Zn402 Zn 0.50635 0.27314 0.88347 0.00000
C403 C 0.57105 0.26947 0.88440 0.00000
O404 O 0.49313 0.29121 0.92644 0.00000
O405 O 0.52308 0.33032 0.93395 0.00000
O406 O 0.47564 0.36625 0.89620 0.00000
O407 O 0.48158 0.37215 0.85035 0.00000
C408 C 0.51583 0.25712 0.81775 0.00000
C409 C 0.56812 0.37021 0.87272 0.00000
C410 C 0.50616 0.31010 0.94343 0.00000
O411 O 0.57364 0.34389 0.86265 0.00000
O412 O 0.54452 0.37842 0.88671 0.00000
O413 O 0.51127 0.31422 0.86464 0.00000
O414 O 0.54664 0.26204 0.89774 0.00000
O415 O 0.57285 0.28406 0.85972 0.00000
O416 O 0.52933 0.28091 0.80928 0.00000
O417 O 0.50505 0.25172 0.84201 0.00000
H418 H 0.49284 0.35695 0.85075 0.00000
C419 C 0.46170 0.36995 0.87131 0.00000
Zn420 Zn 0.65313 0.89299 0.48465 0.00000
Zn421 Zn 0.68758 0.83542 0.45175 0.00000
Zn422 Zn 0.72686 0.88347 0.49365 0.00000
C423 C 0.73053 0.88440 0.42895 0.00000
O424 O 0.70879 0.92644 0.50687 0.00000
O425 O 0.66968 0.93395 0.47692 0.00000
O426 O 0.63375 0.89620 0.52436 0.00000
O427 O 0.62785 0.85035 0.51842 0.00000
C428 C 0.74288 0.81775 0.48417 0.00000
C429 C 0.62979 0.87272 0.43188 0.00000
C430 C 0.68990 0.94343 0.49384 0.00000
O431 O 0.65611 0.86265 0.42636 0.00000
O432 O 0.62158 0.88671 0.45548 0.00000
O433 O 0.68578 0.86464 0.48873 0.00000
O434 O 0.73796 0.89774 0.45336 0.00000
O435 O 0.71594 0.85972 0.42715 0.00000
O436 O 0.71909 0.80928 0.47067 0.00000
O437 O 0.74828 0.84201 0.49495 0.00000
H438 H 0.64305 0.85075 0.50716 0.00000
C439 C 0.63005 0.87131 0.53830 0.00000
Zn440 Zn 0.10701 0.51535 0.65313 0.00000
Zn441 Zn 0.16458 0.54825 0.68758 0.00000
Zn442 Zn 0.11653 0.50635 0.72686 0.00000
C443 C 0.11560 0.57105 0.73053 0.00000
O444 O 0.07356 0.49313 0.70879 0.00000
O445 O 0.06605 0.52308 0.66968 0.00000
O446 O 0.10380 0.47564 0.63375 0.00000
O447 O 0.14965 0.48158 0.62785 0.00000
C448 C 0.18225 0.51583 0.74288 0.00000
C449 C 0.12728 0.56812 0.62979 0.00000
C450 C 0.05657 0.50616 0.68990 0.00000
O451 O 0.13735 0.57364 0.65611 0.00000
O452 O 0.11329 0.54452 0.62158 0.00000
O453 O 0.13536 0.51127 0.68578 0.00000
O454 O 0.10226 0.54664 0.73796 0.00000
O455 O 0.14028 0.57285 0.71594 0.00000
O456 O 0.19072 0.52933 0.71909 0.00000
O457 O 0.15799 0.50505 0.74828 0.00000
H458 H 0.14925 0.49284 0.64305 0.00000
C459 C 0.12869 0.46170 0.63005 0.00000
Zn460 Zn 0.48465 0.10701 0.65313 0.00000
Zn461 Zn 0.45175 0.16458 0.68758 0.00000
Zn462 Zn 0.49365 0.11653 0.72686 0.00000
C463 C 0.42895 0.11560 0.73053 0.00000
O464 O 0.50687 0.07356 0.70879 0.00000
O465 O 0.47692 0.06605 0.66968 0.00000
O466 O 0.52436 0.10380 0.63375 0.00000
O467 O 0.51842 0.14965 0.62785 0.00000
C468 C 0.48417 0.18225 0.74288 0.00000
C469 C 0.43188 0.12728 0.62979 0.00000
C470 C 0.49384 0.05657 0.68990 0.00000
O471 O 0.42636 0.13735 0.65611 0.00000
O472 O 0.45548 0.11329 0.62158 0.00000
O473 O 0.48873 0.13536 0.68578 0.00000
O474 O 0.45336 0.10226 0.73796 0.00000
O475 O 0.42715 0.14028 0.71594 0.00000
O476 O 0.47067 0.19072 0.71909 0.00000
O477 O 0.49495 0.15799 0.74828 0.00000
H478 H 0.50716 0.14925 0.64305 0.00000
C479 C 0.53830 0.12869 0.63005 0.00000
C480 C 0.87969 0.38073 0.56677 0.00000
C481 C 0.85871 0.39719 0.58370 0.00000
C482 C 0.87393 0.41232 0.60510 0.00000
H483 H 0.83799 0.39757 0.58066 0.00000
N484 N 0.90700 0.38498 0.58079 0.00000
N485 N 0.90373 0.40450 0.60326 0.00000
H486 H 0.92362 0.37623 0.57590 0.00000
C487 C 0.58633 0.12505 0.39504 0.00000
C488 C 0.59971 0.14047 0.41914 0.00000
C489 C 0.61778 0.12097 0.43371 0.00000
H490 H 0.59665 0.16058 0.42414 0.00000
N491 N 0.59538 0.09554 0.39788 0.00000
N492 N 0.61481 0.09322 0.42055 0.00000
H493 H 0.58927 0.08080 0.38682 0.00000
C494 C 0.88073 0.61763 0.43426 0.00000
C495 C 0.86020 0.60851 0.41205 0.00000
C496 C 0.87333 0.58657 0.39577 0.00000
H497 H 0.84095 0.61624 0.40913 0.00000
N498 N 0.90686 0.60198 0.42849 0.00000
N499 N 0.90222 0.58282 0.40595 0.00000
H500 H 0.92368 0.60434 0.43789 0.00000
C501 C 0.38044 0.87291 0.43395 0.00000
C502 C 0.40985 0.87610 0.42291 0.00000
C503 C 0.40914 0.87093 0.39305 0.00000
H504 H 0.42681 0.88094 0.43421 0.00000
N505 N 0.36343 0.86327 0.40990 0.00000
N506 N 0.38041 0.86282 0.38524 0.00000
H507 H 0.34472 0.85814 0.41070 0.00000
C508 C 0.12289 0.37942 0.43266 0.00000
C509 C 0.13780 0.40481 0.42124 0.00000
C510 C 0.12641 0.41065 0.39376 0.00000
H511 H 0.15286 0.41568 0.43093 0.00000
N512 N 0.10447 0.36949 0.40979 0.00000
N513 N 0.10598 0.38860 0.38678 0.00000
H514 H 0.09377 0.35331 0.41021 0.00000
C515 C 0.56550 0.61890 0.87235 0.00000
C516 C 0.57794 0.59072 0.87933 0.00000
C517 C 0.60685 0.59085 0.87022 0.00000
H518 H 0.56798 0.57480 0.88862 0.00000
N519 N 0.58748 0.63415 0.85670 0.00000
N520 N 0.61249 0.61770 0.85608 0.00000
H521 H 0.58534 0.65157 0.84842 0.00000
C522 C 0.56570 0.38243 0.11925 0.00000
C523 C 0.58808 0.39132 0.13969 0.00000
C524 C 0.60421 0.41346 0.12670 0.00000
H525 H 0.59120 0.38334 0.15880 0.00000
N526 N 0.57120 0.39844 0.09328 0.00000
N527 N 0.59375 0.41758 0.09796 0.00000
H528 H 0.56164 0.39628 0.07652 0.00000
C529 C 0.60676 0.87506 0.41115 0.00000
C530 C 0.57680 0.86588 0.40724 0.00000
C531 C 0.56695 0.87738 0.38098 0.00000
H532 H 0.56573 0.85396 0.42044 0.00000
N533 N 0.61283 0.89422 0.38755 0.00000
N534 N 0.58929 0.89502 0.36907 0.00000
H535 H 0.62926 0.90429 0.38520 0.00000
C536 C 0.12949 0.60815 0.40832 0.00000
C537 C 0.11609 0.57959 0.40678 0.00000
C538 C 0.12627 0.56593 0.38170 0.00000
H539 H 0.10260 0.57154 0.42063 0.00000
N540 N 0.14562 0.61130 0.38204 0.00000
N541 N 0.14434 0.58576 0.36645 0.00000
H542 H 0.15495 0.62737 0.37644 0.00000
C543 C 0.43291 0.87890 0.61987 0.00000
C544 C 0.41821 0.85923 0.60002 0.00000
C545 C 0.39448 0.87397 0.58826 0.00000
H546 H 0.42388 0.83952 0.59574 0.00000
N547 N 0.41534 0.90442 0.62097 0.00000
N548 N 0.39276 0.90180 0.60148 0.00000
H549 H 0.41838 0.91966 0.63261 0.00000
C550 C 0.12896 0.58428 0.60297 0.00000
C551 C 0.13666 0.61211 0.59019 0.00000
C552 C 0.12111 0.61504 0.56433 0.00000
H553 H 0.15010 0.62606 0.59817 0.00000
N554 N 0.11050 0.57036 0.58232 0.00000
N555 N 0.10516 0.58906 0.55954 0.00000
H556 H 0.10361 0.55228 0.58380 0.00000
C557 C 0.38422 0.11927 0.56443 0.00000
C558 C 0.38716 0.13496 0.59168 0.00000
C559 C 0.41415 0.12791 0.60356 0.00000
H560 H 0.37299 0.14793 0.60004 0.00000
N561 N 0.40928 0.10113 0.56243 0.00000
N562 N 0.42757 0.10684 0.58544 0.00000
H563 H 0.41254 0.08797 0.54854 0.00000
C564 C 0.39291 0.12518 0.41065 0.00000
C565 C 0.42359 0.13226 0.40815 0.00000
C566 C 0.43302 0.12305 0.38085 0.00000
H567 H 0.43531 0.14166 0.42275 0.00000
N568 N 0.38581 0.10938 0.38494 0.00000
N569 N 0.40958 0.10876 0.36675 0.00000
H570 H 0.36868 0.10102 0.38127 0.00000
C571 C 0.61649 0.88087 0.56496 0.00000
C572 C 0.61140 0.86279 0.59035 0.00000
C573 C 0.58607 0.87264 0.60378 0.00000
H574 H 0.62338 0.84685 0.59675 0.00000
N575 N 0.59469 0.90288 0.56580 0.00000
N576 N 0.57601 0.89753 0.58858 0.00000
H577 H 0.59343 0.91792 0.55358 0.00000
C578 C 0.40925 0.60790 0.87350 0.00000
C579 C 0.40956 0.57633 0.87447 0.00000
C580 C 0.38079 0.56683 0.87551 0.00000
H581 H 0.42660 0.56415 0.87439 0.00000
N582 N 0.37953 0.61612 0.87658 0.00000
N583 N 0.36240 0.59156 0.87701 0.00000
H584 H 0.37302 0.63433 0.87818 0.00000
C585 C 0.61917 0.56571 0.12746 0.00000
C586 C 0.59043 0.57757 0.12187 0.00000
C587 C 0.59087 0.60690 0.12951 0.00000
H588 H 0.57401 0.56703 0.11423 0.00000
N589 N 0.63522 0.58857 0.14090 0.00000
N590 N 0.61857 0.61346 0.14143 0.00000
H591 H 0.65320 0.58698 0.14803 0.00000
C592 C 0.43756 0.61348 0.12185 0.00000
C593 C 0.40597 0.61366 0.12206 0.00000
C594 C 0.39662 0.58613 0.13066 0.00000
H595 H 0.39370 0.62990 0.11715 0.00000
N596 N 0.44584 0.58428 0.12814 0.00000
N597 N 0.42139 0.56807 0.13418 0.00000
H598 H 0.46402 0.57748 0.12801 0.00000
C599 C 0.38202 0.43520 0.12804 0.00000
C600 C 0.40783 0.42056 0.11724 0.00000
C601 C 0.40932 0.39338 0.13058 0.00000
H602 H 0.42146 0.42827 0.10332 0.00000
N603 N 0.37027 0.41655 0.14983 0.00000
N604 N 0.38614 0.39117 0.15083 0.00000
H605 H 0.35510 0.42072 0.16121 0.00000
C606 C 0.39274 0.41037 0.87464 0.00000
C607 C 0.42375 0.40859 0.86890 0.00000
C608 C 0.43302 0.38080 0.87669 0.00000
H609 H 0.43574 0.42388 0.86110 0.00000
N610 N 0.38517 0.38359 0.88830 0.00000
N611 N 0.40908 0.36558 0.88884 0.00000
H612 H 0.36770 0.37922 0.89555 0.00000
C613 C 0.58782 0.39394 0.87528 0.00000
C614 C 0.59512 0.42196 0.86268 0.00000
C615 C 0.61864 0.43322 0.87815 0.00000
H616 H 0.58545 0.43111 0.84651 0.00000
N617 N 0.60627 0.39077 0.89999 0.00000
N618 N 0.62524 0.41390 0.90129 0.00000
H619 H 0.60553 0.37617 0.91276 0.00000
C620 C 0.87055 0.39708 0.41569 0.00000
C621 C 0.86457 0.40909 0.38710 0.00000
C622 C 0.87868 0.43585 0.38517 0.00000
H623 H 0.85294 0.40014 0.37215 0.00000
N624 N 0.88639 0.41898 0.43087 0.00000
N625 N 0.89194 0.44187 0.41237 0.00000
H626 H 0.89174 0.41810 0.44951 0.00000
C627 C 0.13206 0.39267 0.59103 0.00000
C628 C 0.11179 0.41536 0.59951 0.00000
C629 C 0.12682 0.43518 0.61683 0.00000
H630 H 0.09159 0.41650 0.59411 0.00000
N631 N 0.15841 0.39885 0.60614 0.00000
N632 N 0.15555 0.42470 0.62097 0.00000
H633 H 0.17425 0.38763 0.60615 0.00000
C634 C 0.60344 0.13246 0.58562 0.00000
C635 C 0.59361 0.12495 0.61469 0.00000
C636 C 0.56335 0.12336 0.61409 0.00000
H637 H 0.60584 0.12165 0.63137 0.00000
N638 N 0.57772 0.13758 0.56911 0.00000
N639 N 0.55371 0.13139 0.58590 0.00000
H640 H 0.57722 0.14397 0.55079 0.00000
C641 C 0.88009 0.56651 0.61883 0.00000
C642 C 0.85878 0.58495 0.60456 0.00000
C643 C 0.87383 0.60484 0.58732 0.00000
H644 H 0.83798 0.58365 0.60663 0.00000
N645 N 0.90777 0.57815 0.61116 0.00000
N646 N 0.90408 0.60061 0.59169 0.00000
H647 H 0.92485 0.57199 0.61803 0.00000
C648 C 0.02437 0.50721 0.69525 0.00000
C649 C 0.00211 0.48528 0.69062 0.00000
C650 C 0.97515 0.49909 0.69167 0.00000
H651 H 0.00541 0.46485 0.68738 0.00000
N652 N 0.00913 0.53347 0.70149 0.00000
N653 N 0.97968 0.52882 0.69859 0.00000
H654 H 0.01735 0.55027 0.70666 0.00000
C655 C 0.49438 0.97537 0.30374 0.00000
C656 C 0.51288 0.99819 0.31535 0.00000
C657 C 0.50104 0.02483 0.30702 0.00000
H658 H 0.53021 0.99540 0.32677 0.00000
N659 N 0.47309 0.98980 0.28643 0.00000
N660 N 0.47658 0.01943 0.28900 0.00000
H661 H 0.45969 0.98101 0.27548 0.00000
C662 C 0.02532 0.49860 0.31161 0.00000
C663 C 0.99733 0.48566 0.30476 0.00000
C664 C 0.97617 0.50711 0.30805 0.00000
H665 H 0.99401 0.46581 0.29896 0.00000
N666 N 0.01913 0.52737 0.32136 0.00000
N667 N 0.98981 0.53275 0.31850 0.00000
H668 H 0.03218 0.53990 0.32839 0.00000
C669 C 0.69346 0.50014 0.02558 0.00000
C670 C 0.67917 0.49251 0.99846 0.00000
C671 C 0.69498 0.50503 0.97583 0.00000
H672 H 0.66188 0.48085 0.99649 0.00000
N673 N 0.71640 0.51949 0.01783 0.00000
N674 N 0.71782 0.52183 0.98801 0.00000
H675 H 0.72795 0.52881 0.03035 0.00000
C676 C 0.49490 0.02471 0.69641 0.00000
C677 C 0.51190 0.00165 0.68312 0.00000
C678 C 0.50118 0.97520 0.69334 0.00000
H679 H 0.52773 0.00419 0.66964 0.00000
N680 N 0.47587 0.01066 0.71645 0.00000
N681 N 0.47907 0.98098 0.71407 0.00000
H682 H 0.46388 0.01968 0.72876 0.00000
C683 C 0.31071 0.97571 0.50767 0.00000
C684 C 0.29343 0.99990 0.49669 0.00000
C685 C 0.31115 0.02435 0.49607 0.00000
H686 H 0.27333 0.99886 0.49087 0.00000
N687 N 0.33804 0.98795 0.51566 0.00000
N688 N 0.33861 0.01690 0.50802 0.00000
H689 H 0.35249 0.97840 0.52443 0.00000
C690 C 0.97473 0.68815 0.50174 0.00000
C691 C 0.00261 0.69658 0.51398 0.00000
C692 C 0.02383 0.69165 0.49290 0.00000
H693 H 0.00583 0.70423 0.53321 0.00000
N694 N 0.98110 0.67590 0.47399 0.00000
N695 N 0.01037 0.67868 0.46835 0.00000
H696 H 0.96816 0.66754 0.46217 0.00000
C697 C 0.69441 0.02426 0.50788 0.00000
C698 C 0.69417 0.00210 0.48537 0.00000
C699 C 0.69093 0.97518 0.49893 0.00000
H700 H 0.69593 0.00543 0.46476 0.00000
N701 N 0.69376 0.00891 0.53480 0.00000
N702 N 0.69090 0.97958 0.52947 0.00000
H703 H 0.69517 0.01700 0.55238 0.00000
C704 C 0.97582 0.30664 0.49165 0.00000
C705 C 0.99807 0.30216 0.51361 0.00000
C706 C 0.02476 0.30978 0.50144 0.00000
H707 H 0.99492 0.29519 0.53311 0.00000
N708 N 0.99099 0.31461 0.46582 0.00000
N709 N 0.02021 0.31726 0.47185 0.00000
H710 H 0.98287 0.31730 0.44840 0.00000
C711 C 0.50141 0.68838 0.02532 0.00000
C712 C 0.51433 0.69530 0.99734 0.00000
C713 C 0.49289 0.69193 0.97617 0.00000
H714 H 0.53415 0.70118 0.99402 0.00000
N715 N 0.47269 0.67852 0.01912 0.00000
N716 N 0.46729 0.68137 0.98980 0.00000
H717 H 0.46019 0.67143 0.03216 0.00000
C718 C 0.30486 0.50087 0.02541 0.00000
C719 C 0.32286 0.50142 0.99990 0.00000
C720 C 0.30486 0.49631 0.97561 0.00000
H721 H 0.34353 0.50474 0.99885 0.00000
N722 N 0.27652 0.49277 0.01582 0.00000
N723 N 0.27631 0.49079 0.98594 0.00000
H724 H 0.26131 0.48933 0.02737 0.00000
C725 C 0.49756 0.31220 0.02515 0.00000
C726 C 0.48701 0.30103 0.99756 0.00000
C727 C 0.50699 0.30888 0.97615 0.00000
H728 H 0.46937 0.29013 0.99460 0.00000
N729 N 0.52284 0.32882 0.01838 0.00000
N730 N 0.52894 0.32622 0.98918 0.00000
H731 H 0.53303 0.33943 0.03105 0.00000
C732 C 0.75976 0.50137 0.79589 0.00000
C733 C 0.78902 0.50797 0.78601 0.00000
C734 C 0.79346 0.49336 0.75982 0.00000
H735 H 0.80287 0.52026 0.79580 0.00000
N736 N 0.74861 0.48054 0.77583 0.00000
N737 N 0.76845 0.47631 0.75381 0.00000
H738 H 0.73150 0.47149 0.77737 0.00000
C739 C 0.50537 0.20067 0.23551 0.00000
C740 C 0.50997 0.23077 0.22711 0.00000
C741 C 0.49199 0.23661 0.20341 0.00000
H742 H 0.52308 0.24428 0.23630 0.00000
N743 N 0.48612 0.18886 0.21428 0.00000
N744 N 0.47749 0.21054 0.19551 0.00000
H745 H 0.48065 0.17027 0.21319 0.00000
C746 C 0.75965 0.49858 0.20423 0.00000
C747 C 0.78916 0.49248 0.21371 0.00000
C748 C 0.79345 0.50654 0.24022 0.00000
H749 H 0.80322 0.48078 0.20351 0.00000
N750 N 0.74816 0.51862 0.22490 0.00000
N751 N 0.76807 0.52280 0.24686 0.00000
H752 H 0.73082 0.52727 0.22371 0.00000
C753 C 0.49539 0.79313 0.24195 0.00000
C754 C 0.50676 0.78896 0.21278 0.00000
C755 C 0.50356 0.75966 0.20571 0.00000
H756 H 0.51500 0.80380 0.20052 0.00000
N757 N 0.48798 0.76484 0.25222 0.00000
N758 N 0.49213 0.74489 0.23028 0.00000
H759 H 0.48178 0.76066 0.27013 0.00000
C760 C 0.20539 0.49780 0.24126 0.00000
C761 C 0.21152 0.49750 0.21027 0.00000
C762 C 0.24054 0.50542 0.20650 0.00000
H763 H 0.19795 0.49268 0.19506 0.00000
N764 N 0.23110 0.50859 0.25481 0.00000
N765 N 0.25240 0.51242 0.23412 0.00000
H766 H 0.23305 0.51244 0.27373 0.00000
C767 C 0.50168 0.79527 0.75924 0.00000
C768 C 0.50552 0.78735 0.78957 0.00000
C769 C 0.49392 0.75961 0.79343 0.00000
H770 H 0.51449 0.79916 0.80436 0.00000
N771 N 0.48527 0.77224 0.74655 0.00000
N772 N 0.48128 0.75053 0.76678 0.00000
H773 H 0.47846 0.77199 0.72837 0.00000
C774 C 0.20492 0.76173 0.49000 0.00000
C775 C 0.22563 0.77094 0.51200 0.00000
C776 C 0.23702 0.79767 0.50337 0.00000
H777 H 0.23058 0.76045 0.52944 0.00000
N778 N 0.20678 0.78282 0.46735 0.00000
N779 N 0.22540 0.80474 0.47567 0.00000
H780 H 0.19748 0.78189 0.45034 0.00000
C781 C 0.79805 0.23578 0.49151 0.00000
C782 C 0.76795 0.23166 0.50015 0.00000
C783 C 0.76399 0.20219 0.50608 0.00000
H784 H 0.75336 0.24662 0.50155 0.00000
N785 N 0.81041 0.20738 0.49025 0.00000
N786 N 0.79027 0.18734 0.49971 0.00000
H787 H 0.82834 0.20320 0.48411 0.00000
C788 C 0.75948 0.79557 0.49849 0.00000
C789 C 0.78936 0.78675 0.49328 0.00000
C790 C 0.79343 0.75970 0.50635 0.00000
H791 H 0.80376 0.79764 0.48267 0.00000
N792 N 0.74744 0.77389 0.51709 0.00000
N793 N 0.76748 0.75202 0.52118 0.00000
H794 H 0.72973 0.77446 0.52501 0.00000
C795 C 0.20344 0.23687 0.50974 0.00000
C796 C 0.22962 0.23147 0.49292 0.00000
C797 C 0.23631 0.20201 0.49543 0.00000
H798 H 0.24041 0.24570 0.48197 0.00000
N799 N 0.19690 0.21011 0.52395 0.00000
N800 N 0.21610 0.18903 0.51480 0.00000
H801 H 0.18270 0.20745 0.53690 0.00000
C802 C 0.20304 0.50951 0.76346 0.00000
C803 C 0.23045 0.49456 0.76824 0.00000
C804 C 0.23619 0.49505 0.79800 0.00000
H805 H 0.24249 0.48585 0.75347 0.00000
N806 N 0.19465 0.52073 0.79111 0.00000
N807 N 0.21406 0.51144 0.81193 0.00000
H808 H 0.17931 0.53216 0.79441 0.00000
C809 C 0.49049 0.20604 0.76045 0.00000
C810 C 0.51429 0.22147 0.77436 0.00000
C811 C 0.50268 0.23785 0.79707 0.00000
H812 H 0.53448 0.22053 0.76887 0.00000
N813 N 0.46468 0.21613 0.77434 0.00000
N814 N 0.47199 0.23457 0.79677 0.00000
H815 H 0.44657 0.21138 0.76920 0.00000
loop_
_geom_bond_atom_site_label_1
_geom_bond_atom_site_label_2
_geom_bond_distance
_geom_bond_site_symmetry_2
_ccdc_geom_bond_type
Zn0 O5 1.991 . S
Zn0 O6 1.968 . S
Zn0 O12 1.928 . S
Zn0 O13 1.929 . S
Zn1 O11 2.165 . S
Zn1 O13 2.095 . S
Zn1 O15 1.986 . S
Zn1 O16 2.003 . S
Zn2 O4 2.152 . S
Zn2 O13 2.019 . S
Zn2 O14 1.962 . S
Zn2 O17 2.073 . S
C3 O14 1.279 . A
C3 O15 1.276 . A
O4 C10 1.268 . A
O5 C10 1.245 . A
O6 C19 1.278 . A
O7 H18 0.840 . S
O7 C19 1.287 . A
C8 O16 1.272 . A
C8 O17 1.203 . A
C9 O11 1.275 . A
C9 O12 1.272 . A
Zn20 O25 1.991 . S
Zn20 O26 1.968 . S
Zn20 O32 1.928 . S
Zn20 O33 1.929 . S
Zn21 O31 2.165 . S
Zn21 O33 2.095 . S
Zn21 O35 1.986 . S
Zn21 O36 2.003 . S
Zn22 O24 2.152 . S
Zn22 O33 2.019 . S
Zn22 O34 1.962 . S
Zn22 O37 2.073 . S
C23 O34 1.279 . A
C23 O35 1.276 . A
O24 C30 1.268 . A
O25 C30 1.245 . A
O26 C39 1.278 . A
O27 H38 0.840 . S
O27 C39 1.287 . A
C28 O36 1.272 . A
C28 O37 1.203 . A
C29 O31 1.275 . A
C29 O32 1.272 . A
Zn40 O45 1.991 . S
Zn40 O46 1.968 . S
Zn40 O52 1.928 . S
Zn40 O53 1.929 . S
Zn41 O51 2.165 . S
Zn41 O53 2.095 . S
Zn41 O55 1.986 . S
Zn41 O56 2.003 . S
Zn42 O44 2.152 . S
Zn42 O53 2.019 . S
Zn42 O54 1.962 . S
Zn42 O57 2.073 . S
C43 O54 1.279 . A
C43 O55 1.276 . A
O44 C50 1.268 . A
O45 C50 1.245 . A
O46 C59 1.278 . A
O47 H58 0.840 . S
O47 C59 1.287 . A
C48 O56 1.272 . A
C48 O57 1.203 . A
C49 O51 1.275 . A
C49 O52 1.272 . A
Zn60 O65 1.991 . S
Zn60 O66 1.968 . S
Zn60 O72 1.928 . S
Zn60 O73 1.929 . S
Zn61 O71 2.165 . S
Zn61 O73 2.095 . S
Zn61 O75 1.986 . S
Zn61 O76 2.003 . S
Zn62 O64 2.152 . S
Zn62 O73 2.019 . S
Zn62 O74 1.962 . S
Zn62 O77 2.073 . S
C63 O74 1.279 . A
C63 O75 1.276 . A
O64 C70 1.268 . A
O65 C70 1.245 . A
O66 C79 1.278 . A
O67 H78 0.840 . S
O67 C79 1.287 . A
C68 O76 1.272 . A
C68 O77 1.203 . A
C69 O71 1.275 . A
C69 O72 1.272 . A
Zn80 O85 1.991 . S
Zn80 O86 1.968 . S
Zn80 O92 1.928 . S
Zn80 O93 1.929 . S
Zn81 O91 2.165 . S
Zn81 O93 2.095 . S
Zn81 O95 1.986 . S
Zn81 O96 2.003 . S
Zn82 O84 2.152 . S
Zn82 O93 2.019 . S
Zn82 O94 1.962 . S
Zn82 O97 2.073 . S
C83 O94 1.279 . A
C83 O95 1.276 . A
O84 C90 1.268 . A
O85 C90 1.245 . A
O86 C99 1.278 . A
O87 H98 0.840 . S
O87 C99 1.287 . A
C88 O96 1.272 . A
C88 O97 1.203 . A
C89 O91 1.275 . A
C89 O92 1.272 . A
Zn100 O105 1.991 . S
Zn100 O106 1.968 . S
Zn100 O112 1.928 . S
Zn100 O113 1.929 . S
Zn101 O111 2.165 . S
Zn101 O113 2.095 . S
Zn101 O115 1.986 . S
Zn101 O116 2.003 . S
Zn102 O104 2.152 . S
Zn102 O113 2.019 . S
Zn102 O114 1.962 . S
Zn102 O117 2.073 . S
C103 O114 1.279 . A
C103 O115 1.276 . A
O104 C110 1.268 . A
O105 C110 1.245 . A
O106 C119 1.278 . A
O107 H118 0.840 . S
O107 C119 1.287 . A
C108 O116 1.272 . A
C108 O117 1.203 . A
C109 O111 1.275 . A
C109 O112 1.272 . A
Zn120 O125 1.991 . S
Zn120 O126 1.968 . S
Zn120 O132 1.928 . S
Zn120 O133 1.929 . S
Zn121 O131 2.165 . S
Zn121 O133 2.095 . S
Zn121 O135 1.986 . S
Zn121 O136 2.003 . S
Zn122 O124 2.152 . S
Zn122 O133 2.019 . S
Zn122 O134 1.962 . S
Zn122 O137 2.073 . S
C123 O134 1.279 . A
C123 O135 1.276 . A
O124 C130 1.268 . A
O125 C130 1.245 . A
O126 C139 1.278 . A
O127 H138 0.840 . S
O127 C139 1.287 . A
C128 O136 1.272 . A
C128 O137 1.203 . A
C129 O131 1.275 . A
C129 O132 1.272 . A
Zn140 O145 1.991 . S
Zn140 O146 1.968 . S
Zn140 O152 1.928 . S
Zn140 O153 1.929 . S
Zn141 O151 2.165 . S
Zn141 O153 2.095 . S
Zn141 O155 1.986 . S
Zn141 O156 2.003 . S
Zn142 O144 2.152 . S
Zn142 O153 2.019 . S
Zn142 O154 1.962 . S
Zn142 O157 2.073 . S
C143 O154 1.279 . A
C143 O155 1.276 . A
O144 C150 1.268 . A
O145 C150 1.245 . A
O146 C159 1.278 . A
O147 H158 0.840 . S
O147 C159 1.287 . A
C148 O156 1.272 . A
C148 O157 1.203 . A
C149 O151 1.275 . A
C149 O152 1.272 . A
Zn160 O165 1.991 . S
Zn160 O166 1.968 . S
Zn160 O172 1.928 . S
Zn160 O173 1.929 . S
Zn161 O171 2.165 . S
Zn161 O173 2.095 . S
Zn161 O175 1.986 . S
Zn161 O176 2.003 . S
Zn162 O164 2.152 . S
Zn162 O173 2.019 . S
Zn162 O174 1.962 . S
Zn162 O177 2.073 . S
C163 O174 1.279 . A
C163 O175 1.276 . A
O164 C170 1.268 . A
O165 C170 1.245 . A
O166 C179 1.278 . A
O167 H178 0.840 . S
O167 C179 1.287 . A
C168 O176 1.272 . A
C168 O177 1.203 . A
C169 O171 1.275 . A
C169 O172 1.272 . A
Zn180 O185 1.991 . S
Zn180 O186 1.968 . S
Zn180 O192 1.928 . S
Zn180 O193 1.929 . S
Zn181 O191 2.165 . S
Zn181 O193 2.095 . S
Zn181 O195 1.986 . S
Zn181 O196 2.003 . S
Zn182 O184 2.152 . S
Zn182 O193 2.019 . S
Zn182 O194 1.962 . S
Zn182 O197 2.073 . S
C183 O194 1.279 . A
C183 O195 1.276 . A
O184 C190 1.268 . A
O185 C190 1.245 . A
O186 C199 1.278 . A
O187 H198 0.840 . S
O187 C199 1.287 . A
C188 O196 1.272 . A
C188 O197 1.203 . A
C189 O191 1.275 . A
C189 O192 1.272 . A
Zn200 O205 1.991 . S
Zn200 O206 1.968 . S
Zn200 O212 1.928 . S
Zn200 O213 1.929 . S
Zn201 O211 2.165 . S
Zn201 O213 2.095 . S
Zn201 O215 1.986 . S
Zn201 O216 2.003 . S
Zn202 O204 2.152 . S
Zn202 O213 2.019 . S
Zn202 O214 1.962 . S
Zn202 O217 2.073 . S
C203 O214 1.279 . A
C203 O215 1.276 . A
O204 C210 1.268 . A
O205 C210 1.245 . A
O206 C219 1.278 . A
O207 H218 0.840 . S
O207 C219 1.287 . A
C208 O216 1.272 . A
C208 O217 1.203 . A
C209 O211 1.275 . A
C209 O212 1.272 . A
Zn220 O225 1.991 . S
Zn220 O226 1.968 . S
Zn220 O232 1.928 . S
Zn220 O233 1.929 . S
Zn221 O231 2.165 . S
Zn221 O233 2.095 . S
Zn221 O235 1.986 . S
Zn221 O236 2.003 . S
Zn222 O224 2.152 . S
Zn222 O233 2.019 . S
Zn222 O234 1.962 . S
Zn222 O237 2.073 . S
C223 O234 1.279 . A
C223 O235 1.276 . A
O224 C230 1.268 . A
O225 C230 1.245 . A
O226 C239 1.278 . A
O227 H238 0.840 . S
O227 C239 1.287 . A
C228 O236 1.272 . A
C228 O237 1.203 . A
C229 O231 1.275 . A
C229 O232 1.272 . A
Zn240 O245 1.991 . S
Zn240 O246 1.968 . S
Zn240 O252 1.928 . S
Zn240 O253 1.929 . S
Zn241 O251 2.165 . S
Zn241 O253 2.095 . S
Zn241 O255 1.986 . S
Zn241 O256 2.003 . S
Zn242 O244 2.152 . S
Zn242 O253 2.019 . S
Zn242 O254 1.962 . S
Zn242 O257 2.073 . S
C243 O254 1.279 . A
C243 O255 1.276 . A
O244 C250 1.268 . A
O245 C250 1.245 . A
O246 C259 1.278 . A
O247 H258 0.840 . S
O247 C259 1.287 . A
C248 O256 1.272 . A
C248 O257 1.203 . A
C249 O251 1.275 . A
C249 O252 1.272 . A
Zn260 O265 1.991 . S
Zn260 O266 1.968 . S
Zn260 O272 1.928 . S
Zn260 O273 1.929 . S
Zn261 O271 2.165 . S
Zn261 O273 2.095 . S
Zn261 O275 1.986 . S
Zn261 O276 2.003 . S
Zn262 O264 2.152 . S
Zn262 O273 2.019 . S
Zn262 O274 1.962 . S
Zn262 O277 2.073 . S
C263 O274 1.279 . A
C263 O275 1.276 . A
O264 C270 1.268 . A
O265 C270 1.245 . A
O266 C279 1.278 . A
O267 H278 0.840 . S
O267 C279 1.287 . A
C268 O276 1.272 . A
C268 O277 1.203 . A
C269 O271 1.275 . A
C269 O272 1.272 . A
Zn280 O285 1.991 . S
Zn280 O286 1.968 . S
Zn280 O292 1.928 . S
Zn280 O293 1.929 . S
Zn281 O291 2.165 . S
Zn281 O293 2.095 . S
Zn281 O295 1.986 . S
Zn281 O296 2.003 . S
Zn282 O284 2.152 . S
Zn282 O293 2.019 . S
Zn282 O294 1.962 . S
Zn282 O297 2.073 . S
C283 O294 1.279 . A
C283 O295 1.276 . A
O284 C290 1.268 . A
O285 C290 1.245 . A
O286 C299 1.278 . A
O287 H298 0.840 . S
O287 C299 1.287 . A
C288 O296 1.272 . A
C288 O297 1.203 . A
C289 O291 1.275 . A
C289 O292 1.272 . A
Zn300 O305 1.991 . S
Zn300 O306 1.968 . S
Zn300 O312 1.928 . S
Zn300 O313 1.929 . S
Zn301 O311 2.165 . S
Zn301 O313 2.095 . S
Zn301 O315 1.986 . S
Zn301 O316 2.003 . S
Zn302 O304 2.152 . S
Zn302 O313 2.019 . S
Zn302 O314 1.962 . S
Zn302 O317 2.073 . S
C303 O314 1.279 . A
C303 O315 1.276 . A
O304 C310 1.268 . A
O305 C310 1.245 . A
O306 C319 1.278 . A
O307 H318 0.840 . S
O307 C319 1.287 . A
C308 O316 1.272 . A
C308 O317 1.203 . A
C309 O311 1.275 . A
C309 O312 1.272 . A
Zn320 O325 1.991 . S
Zn320 O326 1.968 . S
Zn320 O332 1.928 . S
Zn320 O333 1.929 . S
Zn321 O331 2.165 . S
Zn321 O333 2.095 . S
Zn321 O335 1.986 . S
Zn321 O336 2.003 . S
Zn322 O324 2.152 . S
Zn322 O333 2.019 . S
Zn322 O334 1.962 . S
Zn322 O337 2.073 . S
C323 O334 1.279 . A
C323 O335 1.276 . A
O324 C330 1.268 . A
O325 C330 1.245 . A
O326 C339 1.278 . A
O327 H338 0.840 . S
O327 C339 1.287 . A
C328 O336 1.272 . A
C328 O337 1.203 . A
C329 O331 1.275 . A
C329 O332 1.272 . A
Zn340 O345 1.991 . S
Zn340 O346 1.968 . S
Zn340 O352 1.928 . S
Zn340 O353 1.929 . S
Zn341 O351 2.165 . S
Zn341 O353 2.095 . S
Zn341 O355 1.986 . S
Zn341 O356 2.003 . S
Zn342 O344 2.152 . S
Zn342 O353 2.019 . S
Zn342 O354 1.962 . S
Zn342 O357 2.073 . S
C343 O354 1.279 . A
C343 O355 1.276 . A
O344 C350 1.268 . A
O345 C350 1.245 . A
O346 C359 1.278 . A
O347 H358 0.840 . S
O347 C359 1.287 . A
C348 O356 1.272 . A
C348 O357 1.203 . A
C349 O351 1.275 . A
C349 O352 1.272 . A
Zn360 O365 1.991 . S
Zn360 O366 1.968 . S
Zn360 O372 1.928 . S
Zn360 O373 1.929 . S
Zn361 O371 2.165 . S
Zn361 O373 2.095 . S
Zn361 O375 1.986 . S
Zn361 O376 2.003 . S
Zn362 O364 2.152 . S
Zn362 O373 2.019 . S
Zn362 O374 1.962 . S
Zn362 O377 2.073 . S
C363 O374 1.279 . A
C363 O375 1.276 . A
O364 C370 1.268 . A
O365 C370 1.245 . A
O366 C379 1.278 . A
O367 H378 0.840 . S
O367 C379 1.287 . A
C368 O376 1.272 . A
C368 O377 1.203 . A
C369 O371 1.275 . A
C369 O372 1.272 . A
Zn380 O385 1.991 . S
Zn380 O386 1.968 . S
Zn380 O392 1.928 . S
Zn380 O393 1.929 . S
Zn381 O391 2.165 . S
Zn381 O393 2.095 . S
Zn381 O395 1.986 . S
Zn381 O396 2.003 . S
Zn382 O384 2.152 . S
Zn382 O393 2.019 . S
Zn382 O394 1.962 . S
Zn382 O397 2.073 . S
C383 O394 1.279 . A
C383 O395 1.276 . A
O384 C390 1.268 . A
O385 C390 1.245 . A
O386 C399 1.278 . A
O387 H398 0.840 . S
O387 C399 1.287 . A
C388 O396 1.272 . A
C388 O397 1.203 . A
C389 O391 1.275 . A
C389 O392 1.272 . A
Zn400 O405 1.991 . S
Zn400 O406 1.968 . S
Zn400 O412 1.928 . S
Zn400 O413 1.929 . S
Zn401 O411 2.165 . S
Zn401 O413 2.095 . S
Zn401 O415 1.986 . S
Zn401 O416 2.003 . S
Zn402 O404 2.152 . S
Zn402 O413 2.019 . S
Zn402 O414 1.962 . S
Zn402 O417 2.073 . S
C403 O414 1.279 . A
C403 O415 1.276 . A
O404 C410 1.268 . A
O405 C410 1.245 . A
O406 C419 1.278 . A
O407 H418 0.840 . S
O407 C419 1.287 . A
C408 O416 1.272 . A
C408 O417 1.203 . A
C409 O411 1.275 . A
C409 O412 1.272 . A
Zn420 O425 1.991 . S
Zn420 O426 1.968 . S
Zn420 O432 1.928 . S
Zn420 O433 1.929 . S
Zn421 O431 2.165 . S
Zn421 O433 2.095 . S
Zn421 O435 1.986 . S
Zn421 O436 2.003 . S
Zn422 O424 2.152 . S
Zn422 O433 2.019 . S
Zn422 O434 1.962 . S
Zn422 O437 2.073 . S
C423 O434 1.279 . A
C423 O435 1.276 . A
O424 C430 1.268 . A
O425 C430 1.245 . A
O426 C439 1.278 . A
O427 H438 0.840 . S
O427 C439 1.287 . A
C428 O436 1.272 . A
C428 O437 1.203 . A
C429 O431 1.275 . A
C429 O432 1.272 . A
Zn440 O445 1.991 . S
Zn440 O446 1.968 . S
Zn440 O452 1.928 . S
Zn440 O453 1.929 . S
Zn441 O451 2.165 . S
Zn441 O453 2.095 . S
Zn441 O455 1.986 . S
Zn441 O456 2.003 . S
Zn442 O444 2.152 . S
Zn442 O453 2.019 . S
Zn442 O454 1.962 . S
Zn442 O457 2.073 . S
C443 O454 1.279 . A
C443 O455 1.276 . A
O444 C450 1.268 . A
O445 C450 1.245 . A
O446 C459 1.278 . A
O447 H458 0.840 . S
O447 C459 1.287 . A
C448 O456 1.272 . A
C448 O457 1.203 . A
C449 O451 1.275 . A
C449 O452 1.272 . A
Zn460 O465 1.991 . S
Zn460 O466 1.968 . S
Zn460 O472 1.928 . S
Zn460 O473 1.929 . S
Zn461 O471 2.165 . S
Zn461 O473 2.095 . S
Zn461 O475 1.986 . S
Zn461 O476 2.003 . S
Zn462 O464 2.152 . S
Zn462 O473 2.019 . S
Zn462 O474 1.962 . S
Zn462 O477 2.073 . S
C463 O474 1.279 . A
C463 O475 1.276 . A
O464 C470 1.268 . A
O465 C470 1.245 . A
O466 C479 1.278 . A
O467 H478 0.840 . S
O467 C479 1.287 . A
C468 O476 1.272 . A
C468 O477 1.203 . A
C469 O471 1.275 . A
C469 O472 1.272 . A
C480 C481 1.403 . A
C480 N484 1.377 . A
C481 C482 1.346 . A
C481 H483 0.930 . S
C482 N485 1.371 . A
N484 N485 1.330 . A
N484 H486 0.862 . S
C487 C488 1.403 . A
C487 N491 1.377 . A
C488 C489 1.346 . A
C488 H490 0.930 . S
C489 N492 1.371 . A
N491 N492 1.330 . A
N491 H493 0.862 . S
C494 C495 1.403 . A
C494 N498 1.377 . A
C495 C496 1.346 . A
C495 H497 0.930 . S
C496 N499 1.371 . A
N498 N499 1.330 . A
N498 H500 0.862 . S
C501 C502 1.403 . A
C501 N505 1.377 . A
C502 C503 1.346 . A
C502 H504 0.930 . S
C503 N506 1.371 . A
N505 N506 1.330 . A
N505 H507 0.862 . S
C508 C509 1.403 . A
C508 N512 1.377 . A
C509 C510 1.346 . A
C509 H511 0.930 . S
C510 N513 1.371 . A
N512 N513 1.330 . A
N512 H514 0.862 . S
C515 C516 1.403 . A
C515 N519 1.377 . A
C516 C517 1.346 . A
C516 H518 0.930 . S
C517 N520 1.371 . A
N519 N520 1.330 . A
N519 H521 0.862 . S
C522 C523 1.403 . A
C522 N526 1.377 . A
C523 C524 1.346 . A
C523 H525 0.930 . S
C524 N527 1.371 . A
N526 N527 1.330 . A
N526 H528 0.862 . S
C529 C530 1.403 . A
C529 N533 1.377 . A
C530 C531 1.346 . A
C530 H532 0.930 . S
C531 N534 1.371 . A
N533 N534 1.330 . A
N533 H535 0.862 . S
C536 C537 1.403 . A
C536 N540 1.377 . A
C537 C538 1.346 . A
C537 H539 0.930 . S
C538 N541 1.371 . A
N540 N541 1.330 . A
N540 H542 0.862 . S
C543 C544 1.403 . A
C543 N547 1.377 . A
C544 C545 1.346 . A
C544 H546 0.930 . S
C545 N548 1.371 . A
N547 N548 1.330 . A
N547 H549 0.862 . S
C550 C551 1.403 . A
C550 N554 1.377 . A
C551 C552 1.346 . A
C551 H553 0.930 . S
C552 N555 1.371 . A
N554 N555 1.330 . A
N554 H556 0.862 . S
C557 C558 1.403 . A
C557 N561 1.377 . A
C558 C559 1.346 . A
C558 H560 0.930 . S
C559 N562 1.371 . A
N561 N562 1.330 . A
N561 H563 0.862 . S
C564 C565 1.403 . A
C564 N568 1.377 . A
C565 C566 1.346 . A
C565 H567 0.930 . S
C566 N569 1.371 . A
N568 N569 1.330 . A
N568 H570 0.862 . S
C571 C572 1.403 . A
C571 N575 1.377 . A
C572 C573 1.346 . A
C572 H574 0.930 . S
C573 N576 1.371 . A
N575 N576 1.330 . A
N575 H577 0.862 . S
C578 C579 1.403 . A
C578 N582 1.377 . A
C579 C580 1.346 . A
C579 H581 0.930 . S
C580 N583 1.371 . A
N582 N583 1.330 . A
N582 H584 0.862 . S
C585 C586 1.403 . A
C585 N589 1.377 . A
C586 C587 1.346 . A
C586 H588 0.930 . S
C587 N590 1.371 . A
N589 N590 1.330 . A
N589 H591 0.862 . S
C592 C593 1.403 . A
C592 N596 1.377 . A
C593 C594 1.346 . A
C593 H595 0.930 . S
C594 N597 1.371 . A
N596 N597 1.330 . A
N596 H598 0.862 . S
C599 C600 1.403 . A
C599 N603 1.377 . A
C600 C601 1.346 . A
C600 H602 0.930 . S
C601 N604 1.371 . A
N603 N604 1.330 . A
N603 H605 0.862 . S
C606 C607 1.403 . A
C606 N610 1.377 . A
C607 C608 1.346 . A
C607 H609 0.930 . S
C608 N611 1.371 . A
N610 N611 1.330 . A
N610 H612 0.862 . S
C613 C614 1.403 . A
C613 N617 1.377 . A
C614 C615 1.346 . A
C614 H616 0.930 . S
C615 N618 1.371 . A
N617 N618 1.330 . A
N617 H619 0.862 . S
C620 C621 1.403 . A
C620 N624 1.377 . A
C621 C622 1.346 . A
C621 H623 0.930 . S
C622 N625 1.371 . A
N624 N625 1.330 . A
N624 H626 0.862 . S
C627 C628 1.403 . A
C627 N631 1.377 . A
C628 C629 1.346 . A
C628 H630 0.930 . S
C629 N632 1.371 . A
N631 N632 1.330 . A
N631 H633 0.862 . S
C634 C635 1.403 . A
C634 N638 1.377 . A
C635 C636 1.346 . A
C635 H637 0.930 . S
C636 N639 1.371 . A
N638 N639 1.330 . A
N638 H640 0.862 . S
C641 C642 1.403 . A
C641 N645 1.377 . A
C642 C643 1.346 . A
C642 H644 0.930 . S
C643 N646 1.371 . A
N645 N646 1.330 . A
N645 H647 0.862 . S
C648 C649 1.403 . A
C648 N652 1.377 . A
C649 C650 1.346 1_455 A
C649 H651 0.930 . S
C650 N653 1.371 . A
N652 N653 1.330 1_455 A
N652 H654 0.862 . S
C655 C656 1.403 . A
C655 N659 1.377 . A
C656 C657 1.346 1_565 A
C656 H658 0.930 . S
C657 N660 1.371 . A
N659 N660 1.330 1_565 A
N659 H661 0.862 . S
C662 C663 1.403 1_455 A
C662 N666 1.377 . A
C663 C664 1.346 . A
C663 H665 0.930 . S
C664 N667 1.371 . A
N666 N667 1.330 1_455 A
N666 H668 0.862 . S
C669 C670 1.403 1_554 A
C669 N673 1.377 . A
C670 C671 1.346 . A
C670 H672 0.930 . S
C671 N674 1.371 . A
N673 N674 1.330 1_554 A
N673 H675 0.862 . S
C676 C677 1.403 . A
C676 N680 1.377 . A
C677 C678 1.346 1_545 A
C677 H679 0.930 . S
C678 N681 1.371 . A
N680 N681 1.330 1_545 A
N680 H682 0.862 . S
C683 C684 1.407 . A
C683 N687 1.377 . A
C684 C685 1.341 1_565 A
C684 H686 0.931 . S
C685 N688 1.371 . A
N687 N688 1.330 1_565 A
N687 H689 0.862 . S
C690 C691 1.403 1_655 A
C690 N694 1.377 . A
C691 C692 1.346 . A
C691 H693 0.930 . S
C692 N695 1.371 . A
N694 N695 1.330 1_655 A
N694 H696 0.862 . S
C697 C698 1.403 . A
C697 N701 1.377 . A
C698 C699 1.346 1_545 A
C698 H700 0.930 . S
C699 N702 1.371 . A
N701 N702 1.330 1_545 A
N701 H703 0.862 . S
C704 C705 1.403 . A
C704 N708 1.377 . A
C705 C706 1.346 1_655 A
C705 H707 0.930 . S
C706 N709 1.371 . A
N708 N709 1.330 1_655 A
N708 H710 0.862 . S
C711 C712 1.403 1_554 A
C711 N715 1.377 . A
C712 C713 1.346 . A
C712 H714 0.930 . S
C713 N716 1.371 . A
N715 N716 1.330 1_554 A
N715 H717 0.862 . S
C718 C719 1.387 1_554 A
C718 N722 1.377 . A
C719 C720 1.362 . A
C719 H721 0.931 . S
C720 N723 1.371 . A
N722 N723 1.330 1_554 A
N722 H724 0.862 . S
C725 C726 1.403 1_554 A
C725 N729 1.377 . A
C726 C727 1.346 . A
C726 H728 0.930 . S
C727 N730 1.371 . A
N729 N730 1.330 1_554 A
N729 H731 0.862 . S
C732 C733 1.403 . A
C732 N736 1.377 . A
C733 C734 1.346 . A
C733 H735 0.930 . S
C734 N737 1.371 . A
N736 N737 1.330 . A
N736 H738 0.862 . S
C739 C740 1.403 . A
C739 N743 1.377 . A
C740 C741 1.346 . A
C740 H742 0.930 . S
C741 N744 1.371 . A
N743 N744 1.330 . A
N743 H745 0.862 . S
C746 C747 1.403 . A
C746 N750 1.377 . A
C747 C748 1.346 . A
C747 H749 0.930 . S
C748 N751 1.371 . A
N750 N751 1.330 . A
N750 H752 0.862 . S
C753 C754 1.403 . A
C753 N757 1.377 . A
C754 C755 1.346 . A
C754 H756 0.930 . S
C755 N758 1.371 . A
N757 N758 1.330 . A
N757 H759 0.862 . S
C760 C761 1.403 . A
C760 N764 1.377 . A
C761 C762 1.346 . A
C761 H763 0.930 . S
C762 N765 1.371 . A
N764 N765 1.330 . A
N764 H766 0.862 . S
C767 C768 1.403 . A
C767 N771 1.377 . A
C768 C769 1.346 . A
C768 H770 0.930 . S
C769 N772 1.371 . A
N771 N772 1.330 . A
N771 H773 0.862 . S
C774 C775 1.403 . A
C774 N778 1.377 . A
C775 C776 1.346 . A
C775 H777 0.930 . S
C776 N779 1.371 . A
N778 N779 1.330 . A
N778 H780 0.862 . S
C781 C782 1.403 . A
C781 N785 1.377 . A
C782 C783 1.346 . A
C782 H784 0.930 . S
C783 N786 1.371 . A
N785 N786 1.330 . A
N785 H787 0.862 . S
C788 C789 1.403 . A
C788 N792 1.377 . A
C789 C790 1.346 . A
C789 H791 0.930 . S
C790 N793 1.371 . A
N792 N793 1.330 . A
N792 H794 0.862 . S
C795 C796 1.403 . A
C795 N799 1.377 . A
C796 C797 1.346 . A
C796 H798 0.930 . S
C797 N800 1.371 . A
N799 N800 1.330 . A
N799 H801 0.862 . S
C802 C803 1.403 . A
C802 N806 1.377 . A
C803 C804 1.346 . A
C803 H805 0.930 . S
C804 N807 1.371 . A
N806 N807 1.330 . A
N806 H808 0.862 . S
C809 C810 1.403 . A
C809 N813 1.377 . A
C810 C811 1.346 . A
C810 H812 0.930 . S
C811 N814 1.371 . A
N813 N814 1.330 . A
N813 H815 0.862 . S
C480 C299 1.402 . S
C482 C9 1.400 . S
C487 C29 1.371 . S
C489 C219 1.400 . S
C494 C239 1.402 . S
C496 C49 1.400 . S
C501 C179 1.319 . S
C503 C69 1.434 . S
C508 C259 1.381 . S
C510 C89 1.409 . S
C515 C319 1.306 . S
C517 C109 1.439 . S
C522 C379 1.401 . S
C524 C129 1.400 . S
C529 C429 1.380 . S
C531 C79 1.390 . S
C536 C189 1.424 . S
C538 C99 1.338 . S
C543 C159 1.397 . S
C545 C169 1.402 . S
C550 C449 1.393 . S
C552 C199 1.376 . S
C557 C279 1.387 . S
C559 C469 1.407 . S
C564 C269 1.384 . S
C566 C39 1.385 . S
C571 C439 1.394 . S
C573 C149 1.404 . S
C578 C309 1.399 . S
C580 C399 1.368 . S
C585 C139 1.311 . S
C587 C329 1.437 . S
C592 C339 1.336 . S
C594 C349 1.428 . S
C599 C359 1.293 . S
C601 C369 1.444 . S
C606 C389 1.386 . S
C608 C419 1.383 . S
C613 C409 1.375 . S
C615 C119 1.396 . S
C620 C289 1.397 . S
C622 C59 1.372 . S
C627 C249 1.441 . S
C629 C459 1.319 . S
C634 C209 1.424 . S
C636 C479 1.340 . S
C641 C19 1.403 . S
C643 C229 1.399 . S
C648 C450 1.451 . S
C650 C10 1.430 . S
C655 C70 1.447 . S
C657 C30 1.435 . S
C662 C90 1.405 . S
C664 C50 1.458 . S
C669 C130 1.414 . S
C671 C110 1.457 . S
C676 C470 1.445 . S
C678 C150 1.436 . S
C683 C170 1.435 . S
C685 C270 1.435 . S
C690 C230 1.406 . S
C692 C190 1.457 . S
C697 C210 1.451 . S
C699 C430 1.429 . S
C704 C290 1.450 . S
C706 C250 1.428 . S
C711 C330 1.406 . S
C713 C310 1.458 . S
C718 C350 1.423 . S
C720 C390 1.452 . S
C725 C370 1.408 . S
C727 C410 1.455 . S
C732 C108 1.384 . S
C734 C8 1.377 . S
C739 C28 1.344 . S
C741 C368 1.354 . S
C746 C128 1.385 . S
C748 C48 1.378 . S
C753 C68 1.377 . S
C755 C328 1.392 . S
C760 C88 1.385 . S
C762 C348 1.384 . S
C767 C148 1.385 . S
C769 C308 1.381 . S
C774 C188 1.335 . S
C776 C168 1.378 . S
C781 C288 1.330 . S
C783 C208 1.360 . S
C788 C428 1.385 . S
C790 C228 1.379 . S
C795 C248 1.329 . S
C797 C268 1.369 . S
C802 C448 1.329 . S
C804 C388 1.366 . S
C809 C468 1.343 . S
C811 C408 1.385 . S
