# Generated by pormake.
# Topology lta, (4)-cn, num edge types: 1
# Building blocks:
#     Node 0, Type 0, BuildingBlock: N599, # of connection points: 7
#     Node 1, Type 0, BuildingBlock: N599, # of connection points: 7
#     Node 2, Type 0, BuildingBlock: N599, # of connection points: 7
#     Node 3, Type 0, BuildingBlock: N599, # of connection points: 7
#     Node 4, Type 0, BuildingBlock: N599, # of connection points: 7
#     Node 5, Type 0, BuildingBlock: N599, # of connection points: 7
#     Node 6, Type 0, BuildingBlock: N599, # of connection points: 7
#     Node 7, Type 0, BuildingBlock: N599, # of connection points: 7
#     Node 8, Type 0, BuildingBlock: N599, # of connection points: 7
#     Node 9, Type 0, BuildingBlock: N599, # of connection points: 7
#     Node 10, Type 0, BuildingBlock: N599, # of connection points: 7
#     Node 11, Type 0, BuildingBlock: N599, # of connection points: 7
#     Node 12, Type 0, BuildingBlock: N599, # of connection points: 7
#     Node 13, Type 0, BuildingBlock: N599, # of connection points: 7
#     Node 14, Type 0, BuildingBlock: N599, # of connection points: 7
#     Node 15, Type 0, BuildingBlock: N599, # of connection points: 7
#     Node 16, Type 0, BuildingBlock: N599, # of connection points: 7
#     Node 17, Type 0, BuildingBlock: N599, # of connection points: 7
#     Node 18, Type 0, BuildingBlock: N599, # of connection points: 7
#     Node 19, Type 0, BuildingBlock: N599, # of connection points: 7
#     Node 20, Type 0, BuildingBlock: N599, # of connection points: 7
#     Node 21, Type 0, BuildingBlock: N599, # of connection points: 7
#     Node 22, Type 0, BuildingBlock: N599, # of connection points: 7
#     Node 23, Type 0, BuildingBlock: N599, # of connection points: 7
#     Edge 24, Type (0, 0), BuildingBlock: E50, # of connection points: 2
#     Edge 25, Type (0, 0), BuildingBlock: E50, # of connection points: 2
#     Edge 26, Type (0, 0), BuildingBlock: E50, # of connection points: 2
#     Edge 27, Type (0, 0), BuildingBlock: E50, # of connection points: 2
#     Edge 28, Type (0, 0), BuildingBlock: E50, # of connection points: 2
#     Edge 29, Type (0, 0), BuildingBlock: E50, # of connection points: 2
#     Edge 30, Type (0, 0), BuildingBlock: E50, # of connection points: 2
#     Edge 31, Type (0, 0), BuildingBlock: E50, # of connection points: 2
#     Edge 32, Type (0, 0), BuildingBlock: E50, # of connection points: 2
#     Edge 33, Type (0, 0), BuildingBlock: E50, # of connection points: 2
#     Edge 34, Type (0, 0), BuildingBlock: E50, # of connection points: 2
#     Edge 35, Type (0, 0), BuildingBlock: E50, # of connection points: 2
#     Edge 36, Type (0, 0), BuildingBlock: E50, # of connection points: 2
#     Edge 37, Type (0, 0), BuildingBlock: E50, # of connection points: 2
#     Edge 38, Type (0, 0), BuildingBlock: E50, # of connection points: 2
#     Edge 39, Type (0, 0), BuildingBlock: E50, # of connection points: 2
#     Edge 40, Type (0, 0), BuildingBlock: E50, # of connection points: 2
#     Edge 41, Type (0, 0), BuildingBlock: E50, # of connection points: 2
#     Edge 42, Type (0, 0), BuildingBlock: E50, # of connection points: 2
#     Edge 43, Type (0, 0), BuildingBlock: E50, # of connection points: 2
#     Edge 44, Type (0, 0), BuildingBlock: E50, # of connection points: 2
#     Edge 45, Type (0, 0), BuildingBlock: E50, # of connection points: 2
#     Edge 46, Type (0, 0), BuildingBlock: E50, # of connection points: 2
#     Edge 47, Type (0, 0), BuildingBlock: E50, # of connection points: 2
#     Edge 48, Type (0, 0), BuildingBlock: E50, # of connection points: 2
#     Edge 49, Type (0, 0), BuildingBlock: E50, # of connection points: 2
#     Edge 50, Type (0, 0), BuildingBlock: E50, # of connection points: 2
#     Edge 51, Type (0, 0), BuildingBlock: E50, # of connection points: 2
#     Edge 52, Type (0, 0), BuildingBlock: E50, # of connection points: 2
#     Edge 53, Type (0, 0), BuildingBlock: E50, # of connection points: 2
#     Edge 54, Type (0, 0), BuildingBlock: E50, # of connection points: 2
#     Edge 55, Type (0, 0), BuildingBlock: E50, # of connection points: 2
#     Edge 56, Type (0, 0), BuildingBlock: E50, # of connection points: 2
#     Edge 57, Type (0, 0), BuildingBlock: E50, # of connection points: 2
#     Edge 58, Type (0, 0), BuildingBlock: E50, # of connection points: 2
#     Edge 59, Type (0, 0), BuildingBlock: E50, # of connection points: 2
#     Edge 60, Type (0, 0), BuildingBlock: E50, # of connection points: 2
#     Edge 61, Type (0, 0), BuildingBlock: E50, # of connection points: 2
#     Edge 62, Type (0, 0), BuildingBlock: E50, # of connection points: 2
#     Edge 63, Type (0, 0), BuildingBlock: E50, # of connection points: 2
#     Edge 64, Type (0, 0), BuildingBlock: E50, # of connection points: 2
#     Edge 65, Type (0, 0), BuildingBlock: E50, # of connection points: 2
#     Edge 66, Type (0, 0), BuildingBlock: E50, # of connection points: 2
#     Edge 67, Type (0, 0), BuildingBlock: E50, # of connection points: 2
#     Edge 68, Type (0, 0), BuildingBlock: E50, # of connection points: 2
#     Edge 69, Type (0, 0), BuildingBlock: E50, # of connection points: 2
#     Edge 70, Type (0, 0), BuildingBlock: E50, # of connection points: 2
#     Edge 71, Type (0, 0), BuildingBlock: E50, # of connection points: 2
# Relax obj value: 0.157
# Max RMSD: 0.194
# Mean RMSD: 0.194
data_lta+N599+E50
_symmetry_space_group_name_H-M    P1
_symmetry_Int_Tables_number       1
_symmetry_cell_setting            triclinic
loop_
_symmetry_equiv_pos_as_xyz
'x, y, z'
_cell_length_a     42.380
_cell_length_b     42.380
_cell_length_c     42.380
_cell_angle_alpha  90.000
_cell_angle_beta   90.000
_cell_angle_gamma  90.000
loop_
_atom_site_label
_atom_site_type_symbol
_atom_site_fract_x
_atom_site_fract_y
_atom_site_fract_z
_atom_type_partial_charge
C0 C 0.87671 0.42682 0.72385 0.00000
C1 C 0.95514 0.50119 0.67737 0.00000
Zn2 Zn 0.82428 0.45567 0.68197 0.00000
Zn3 Zn 0.89299 0.48485 0.69564 0.00000
Zn4 Zn 0.85545 0.49162 0.62578 0.00000
Zn5 Zn 0.83181 0.52562 0.68722 0.00000
O6 O 0.79629 0.46577 0.71643 0.00000
O7 O 0.79347 0.51919 0.71105 0.00000
C8 C 0.84372 0.56109 0.63431 0.00000
C9 C 0.78584 0.49293 0.62742 0.00000
C10 C 0.78507 0.49238 0.72344 0.00000
O11 O 0.96456 0.49441 0.70553 0.00000
O12 O 0.92699 0.49684 0.66778 0.00000
O13 O 0.86159 0.54125 0.62449 0.00000
O14 O 0.82463 0.55969 0.65712 0.00000
O15 O 0.85768 0.54751 0.72073 0.00000
O16 O 0.89313 0.51238 0.73252 0.00000
C17 C 0.83739 0.42070 0.62696 0.00000
O18 O 0.85371 0.48974 0.67271 0.00000
O19 O 0.90023 0.44352 0.71473 0.00000
O20 O 0.84945 0.42959 0.71409 0.00000
O21 O 0.81125 0.49828 0.61161 0.00000
O22 O 0.78761 0.47757 0.65195 0.00000
H23 H 0.94967 0.49717 0.71828 0.00000
O24 O 0.85203 0.44231 0.61795 0.00000
O25 O 0.82167 0.41970 0.65420 0.00000
C26 C 0.88062 0.53768 0.73719 0.00000
C27 C 0.57318 0.12328 0.27615 0.00000
C28 C 0.49881 0.04486 0.32263 0.00000
Zn29 Zn 0.54433 0.17571 0.31803 0.00000
Zn30 Zn 0.51515 0.10701 0.30436 0.00000
Zn31 Zn 0.50838 0.14454 0.37422 0.00000
Zn32 Zn 0.47438 0.16819 0.31278 0.00000
O33 O 0.53423 0.20371 0.28357 0.00000
O34 O 0.48081 0.20653 0.28895 0.00000
C35 C 0.43891 0.15628 0.36569 0.00000
C36 C 0.50707 0.21415 0.37258 0.00000
C37 C 0.50762 0.21492 0.27656 0.00000
O38 O 0.50559 0.03544 0.29447 0.00000
O39 O 0.50316 0.07300 0.33222 0.00000
O40 O 0.45875 0.13841 0.37551 0.00000
O41 O 0.44031 0.17537 0.34289 0.00000
O42 O 0.45249 0.14231 0.27927 0.00000
O43 O 0.48762 0.10687 0.26748 0.00000
C44 C 0.57930 0.16261 0.37304 0.00000
O45 O 0.51026 0.14628 0.32729 0.00000
O46 O 0.55648 0.09977 0.28527 0.00000
O47 O 0.57041 0.15054 0.28591 0.00000
O48 O 0.50172 0.18875 0.38839 0.00000
O49 O 0.52243 0.21238 0.34805 0.00000
H50 H 0.50283 0.05033 0.28171 0.00000
O51 O 0.55769 0.14797 0.38205 0.00000
O52 O 0.58030 0.17832 0.34580 0.00000
C53 C 0.46232 0.11938 0.26281 0.00000
C54 C 0.87672 0.57318 0.27615 0.00000
C55 C 0.95514 0.49881 0.32263 0.00000
Zn56 Zn 0.82428 0.54433 0.31803 0.00000
Zn57 Zn 0.89299 0.51515 0.30436 0.00000
Zn58 Zn 0.85545 0.50838 0.37422 0.00000
Zn59 Zn 0.83181 0.47438 0.31278 0.00000
O60 O 0.79629 0.53423 0.28357 0.00000
O61 O 0.79347 0.48081 0.28895 0.00000
C62 C 0.84372 0.43891 0.36569 0.00000
C63 C 0.78585 0.50707 0.37258 0.00000
C64 C 0.78508 0.50762 0.27656 0.00000
O65 O 0.96456 0.50559 0.29447 0.00000
O66 O 0.92700 0.50316 0.33222 0.00000
O67 O 0.86159 0.45875 0.37551 0.00000
O68 O 0.82463 0.44031 0.34289 0.00000
O69 O 0.85769 0.45249 0.27927 0.00000
O70 O 0.89313 0.48762 0.26748 0.00000
C71 C 0.83739 0.57930 0.37304 0.00000
O72 O 0.85372 0.51026 0.32729 0.00000
O73 O 0.90023 0.55648 0.28527 0.00000
O74 O 0.84946 0.57041 0.28591 0.00000
O75 O 0.81125 0.50172 0.38839 0.00000
O76 O 0.78761 0.52243 0.34805 0.00000
H77 H 0.94967 0.50283 0.28172 0.00000
O78 O 0.85203 0.55769 0.38205 0.00000
O79 O 0.82167 0.58030 0.34580 0.00000
C80 C 0.88062 0.46232 0.26281 0.00000
C81 C 0.42682 0.87672 0.27614 0.00000
C82 C 0.50119 0.95514 0.32263 0.00000
Zn83 Zn 0.45567 0.82428 0.31803 0.00000
Zn84 Zn 0.48485 0.89299 0.30436 0.00000
Zn85 Zn 0.49162 0.85545 0.37421 0.00000
Zn86 Zn 0.52562 0.83181 0.31278 0.00000
O87 O 0.46577 0.79629 0.28357 0.00000
O88 O 0.51919 0.79347 0.28895 0.00000
C89 C 0.56109 0.84372 0.36569 0.00000
C90 C 0.49293 0.78585 0.37258 0.00000
C91 C 0.49238 0.78508 0.27656 0.00000
O92 O 0.49441 0.96456 0.29447 0.00000
O93 O 0.49684 0.92700 0.33222 0.00000
O94 O 0.54125 0.86159 0.37551 0.00000
O95 O 0.55969 0.82463 0.34288 0.00000
O96 O 0.54751 0.85769 0.27927 0.00000
O97 O 0.51238 0.89313 0.26748 0.00000
C98 C 0.42070 0.83739 0.37304 0.00000
O99 O 0.48974 0.85372 0.32728 0.00000
O100 O 0.44352 0.90023 0.28527 0.00000
O101 O 0.42959 0.84945 0.28591 0.00000
O102 O 0.49828 0.81125 0.38839 0.00000
O103 O 0.47757 0.78761 0.34805 0.00000
H104 H 0.49717 0.94967 0.28171 0.00000
O105 O 0.44231 0.85203 0.38205 0.00000
O106 O 0.41970 0.82167 0.34580 0.00000
C107 C 0.53768 0.88062 0.26281 0.00000
C108 C 0.12328 0.42682 0.27615 0.00000
C109 C 0.04486 0.50119 0.32263 0.00000
Zn110 Zn 0.17572 0.45567 0.31803 0.00000
Zn111 Zn 0.10701 0.48485 0.30436 0.00000
Zn112 Zn 0.14455 0.49162 0.37422 0.00000
Zn113 Zn 0.16819 0.52562 0.31278 0.00000
O114 O 0.20371 0.46577 0.28357 0.00000
O115 O 0.20653 0.51919 0.28895 0.00000
C116 C 0.15628 0.56109 0.36569 0.00000
C117 C 0.21416 0.49293 0.37258 0.00000
C118 C 0.21492 0.49238 0.27656 0.00000
O119 O 0.03544 0.49441 0.29447 0.00000
O120 O 0.07301 0.49684 0.33222 0.00000
O121 O 0.13841 0.54125 0.37551 0.00000
O122 O 0.17537 0.55969 0.34288 0.00000
O123 O 0.14231 0.54751 0.27927 0.00000
O124 O 0.10687 0.51238 0.26748 0.00000
C125 C 0.16261 0.42070 0.37304 0.00000
O126 O 0.14628 0.48974 0.32729 0.00000
O127 O 0.09977 0.44352 0.28527 0.00000
O128 O 0.15055 0.42959 0.28591 0.00000
O129 O 0.18875 0.49828 0.38839 0.00000
O130 O 0.21239 0.47757 0.34805 0.00000
H131 H 0.05033 0.49717 0.28172 0.00000
O132 O 0.14797 0.44231 0.38205 0.00000
O133 O 0.17833 0.41970 0.34580 0.00000
C134 C 0.11938 0.53768 0.26281 0.00000
C135 C 0.72385 0.57318 0.87672 0.00000
C136 C 0.67737 0.49881 0.95515 0.00000
Zn137 Zn 0.68197 0.54433 0.82429 0.00000
Zn138 Zn 0.69564 0.51515 0.89300 0.00000
Zn139 Zn 0.62578 0.50838 0.85546 0.00000
Zn140 Zn 0.68722 0.47438 0.83182 0.00000
O141 O 0.71643 0.53423 0.79629 0.00000
O142 O 0.71105 0.48081 0.79348 0.00000
C143 C 0.63431 0.43891 0.84373 0.00000
C144 C 0.62742 0.50707 0.78585 0.00000
C145 C 0.72344 0.50762 0.78508 0.00000
O146 O 0.70553 0.50559 0.96457 0.00000
O147 O 0.66778 0.50316 0.92700 0.00000
O148 O 0.62449 0.45875 0.86159 0.00000
O149 O 0.65712 0.44031 0.82464 0.00000
O150 O 0.72073 0.45249 0.85769 0.00000
O151 O 0.73252 0.48762 0.89314 0.00000
C152 C 0.62696 0.57930 0.83740 0.00000
O153 O 0.67271 0.51026 0.85372 0.00000
O154 O 0.71473 0.55648 0.90023 0.00000
O155 O 0.71409 0.57041 0.84946 0.00000
O156 O 0.61161 0.50172 0.81125 0.00000
O157 O 0.65195 0.52243 0.78762 0.00000
H158 H 0.71828 0.50283 0.94967 0.00000
O159 O 0.61795 0.55768 0.85203 0.00000
O160 O 0.65420 0.58030 0.82168 0.00000
C161 C 0.73719 0.46232 0.88062 0.00000
C162 C 0.72385 0.42682 0.12328 0.00000
C163 C 0.67737 0.50119 0.04485 0.00000
Zn164 Zn 0.68197 0.45567 0.17571 0.00000
Zn165 Zn 0.69564 0.48485 0.10700 0.00000
Zn166 Zn 0.62578 0.49162 0.14454 0.00000
Zn167 Zn 0.68722 0.52562 0.16818 0.00000
O168 O 0.71643 0.46577 0.20371 0.00000
O169 O 0.71105 0.51919 0.20652 0.00000
C170 C 0.63431 0.56109 0.15627 0.00000
C171 C 0.62742 0.49293 0.21415 0.00000
C172 C 0.72344 0.49238 0.21492 0.00000
O173 O 0.70553 0.49441 0.03543 0.00000
O174 O 0.66778 0.49684 0.07300 0.00000
O175 O 0.62449 0.54125 0.13841 0.00000
O176 O 0.65711 0.55969 0.17536 0.00000
O177 O 0.72073 0.54751 0.14231 0.00000
O178 O 0.73252 0.51238 0.10686 0.00000
C179 C 0.62696 0.42070 0.16260 0.00000
O180 O 0.67271 0.48974 0.14628 0.00000
O181 O 0.71473 0.44352 0.09976 0.00000
O182 O 0.71409 0.42959 0.15054 0.00000
O183 O 0.61161 0.49828 0.18875 0.00000
O184 O 0.65195 0.47757 0.21238 0.00000
H185 H 0.71828 0.49717 0.05033 0.00000
O186 O 0.61795 0.44231 0.14797 0.00000
O187 O 0.65420 0.41970 0.17832 0.00000
C188 C 0.73719 0.53768 0.11938 0.00000
C189 C 0.57318 0.87672 0.72386 0.00000
C190 C 0.49881 0.95514 0.67737 0.00000
Zn191 Zn 0.54433 0.82428 0.68197 0.00000
Zn192 Zn 0.51515 0.89299 0.69564 0.00000
Zn193 Zn 0.50838 0.85545 0.62579 0.00000
Zn194 Zn 0.47438 0.83181 0.68722 0.00000
O195 O 0.53423 0.79629 0.71643 0.00000
O196 O 0.48081 0.79347 0.71105 0.00000
C197 C 0.43891 0.84372 0.63431 0.00000
C198 C 0.50707 0.78585 0.62742 0.00000
C199 C 0.50762 0.78508 0.72344 0.00000
O200 O 0.50559 0.96456 0.70553 0.00000
O201 O 0.50316 0.92700 0.66778 0.00000
O202 O 0.45875 0.86159 0.62449 0.00000
O203 O 0.44031 0.82463 0.65712 0.00000
O204 O 0.45249 0.85769 0.72073 0.00000
O205 O 0.48762 0.89313 0.73252 0.00000
C206 C 0.57930 0.83739 0.62696 0.00000
O207 O 0.51026 0.85372 0.67271 0.00000
O208 O 0.55648 0.90023 0.71473 0.00000
O209 O 0.57041 0.84945 0.71409 0.00000
O210 O 0.50172 0.81125 0.61161 0.00000
O211 O 0.52243 0.78761 0.65195 0.00000
H212 H 0.50283 0.94967 0.71829 0.00000
O213 O 0.55769 0.85203 0.61795 0.00000
O214 O 0.58030 0.82167 0.65420 0.00000
C215 C 0.46232 0.88062 0.73719 0.00000
C216 C 0.27614 0.87671 0.57318 0.00000
C217 C 0.32263 0.95513 0.49882 0.00000
Zn218 Zn 0.31803 0.82427 0.54433 0.00000
Zn219 Zn 0.30436 0.89298 0.51515 0.00000
Zn220 Zn 0.37421 0.85545 0.50838 0.00000
Zn221 Zn 0.31278 0.83180 0.47438 0.00000
O222 O 0.28357 0.79628 0.53423 0.00000
O223 O 0.28895 0.79346 0.48081 0.00000
C224 C 0.36569 0.84371 0.43891 0.00000
C225 C 0.37258 0.78584 0.50707 0.00000
C226 C 0.27656 0.78507 0.50762 0.00000
O227 O 0.29447 0.96455 0.50559 0.00000
O228 O 0.33222 0.92699 0.50316 0.00000
O229 O 0.37551 0.86158 0.45875 0.00000
O230 O 0.34288 0.82462 0.44031 0.00000
O231 O 0.27927 0.85768 0.45249 0.00000
O232 O 0.26748 0.89312 0.48762 0.00000
C233 C 0.37304 0.83738 0.57930 0.00000
O234 O 0.32729 0.85371 0.51026 0.00000
O235 O 0.28527 0.90022 0.55648 0.00000
O236 O 0.28591 0.84945 0.57041 0.00000
O237 O 0.38839 0.81124 0.50172 0.00000
O238 O 0.34805 0.78760 0.52243 0.00000
H239 H 0.28171 0.94966 0.50283 0.00000
O240 O 0.38205 0.85202 0.55769 0.00000
O241 O 0.34580 0.82166 0.58030 0.00000
C242 C 0.26281 0.88061 0.46232 0.00000
C243 C 0.12329 0.72386 0.42682 0.00000
C244 C 0.04486 0.67737 0.50119 0.00000
Zn245 Zn 0.17572 0.68197 0.45567 0.00000
Zn246 Zn 0.10701 0.69564 0.48485 0.00000
Zn247 Zn 0.14455 0.62579 0.49162 0.00000
Zn248 Zn 0.16819 0.68722 0.52562 0.00000
O249 O 0.20372 0.71643 0.46577 0.00000
O250 O 0.20653 0.71105 0.51919 0.00000
C251 C 0.15628 0.63431 0.56109 0.00000
C252 C 0.21416 0.62742 0.49293 0.00000
C253 C 0.21493 0.72344 0.49238 0.00000
O254 O 0.03544 0.70553 0.49441 0.00000
O255 O 0.07301 0.66778 0.49684 0.00000
O256 O 0.13842 0.62449 0.54125 0.00000
O257 O 0.17537 0.65712 0.55969 0.00000
O258 O 0.14232 0.72073 0.54751 0.00000
O259 O 0.10687 0.73252 0.51238 0.00000
C260 C 0.16261 0.62696 0.42070 0.00000
O261 O 0.14629 0.67271 0.48974 0.00000
O262 O 0.09977 0.71473 0.44352 0.00000
O263 O 0.15055 0.71409 0.42959 0.00000
O264 O 0.18876 0.61161 0.49828 0.00000
O265 O 0.21239 0.65195 0.47757 0.00000
H266 H 0.05034 0.71829 0.49717 0.00000
O267 O 0.14797 0.61795 0.44231 0.00000
O268 O 0.17833 0.65420 0.41970 0.00000
C269 C 0.11939 0.73719 0.53768 0.00000
C270 C 0.72386 0.12329 0.57318 0.00000
C271 C 0.67737 0.04487 0.49881 0.00000
Zn272 Zn 0.68197 0.17572 0.54433 0.00000
Zn273 Zn 0.69564 0.10702 0.51515 0.00000
Zn274 Zn 0.62579 0.14455 0.50838 0.00000
Zn275 Zn 0.68722 0.16820 0.47438 0.00000
O276 O 0.71643 0.20372 0.53423 0.00000
O277 O 0.71105 0.20654 0.48081 0.00000
C278 C 0.63431 0.15629 0.43891 0.00000
C279 C 0.62742 0.21416 0.50707 0.00000
C280 C 0.72344 0.21493 0.50762 0.00000
O281 O 0.70553 0.03545 0.50559 0.00000
O282 O 0.66778 0.07301 0.50316 0.00000
O283 O 0.62449 0.13842 0.45875 0.00000
O284 O 0.65712 0.17538 0.44031 0.00000
O285 O 0.72073 0.14232 0.45249 0.00000
O286 O 0.73252 0.10688 0.48762 0.00000
C287 C 0.62696 0.16262 0.57930 0.00000
O288 O 0.67271 0.14629 0.51026 0.00000
O289 O 0.71473 0.09978 0.55648 0.00000
O290 O 0.71409 0.15055 0.57041 0.00000
O291 O 0.61161 0.18876 0.50172 0.00000
O292 O 0.65195 0.21240 0.52243 0.00000
H293 H 0.71829 0.05034 0.50283 0.00000
O294 O 0.61795 0.14798 0.55769 0.00000
O295 O 0.65420 0.17834 0.58030 0.00000
C296 C 0.73719 0.11939 0.46232 0.00000
C297 C 0.87671 0.72385 0.57318 0.00000
C298 C 0.95514 0.67737 0.49881 0.00000
Zn299 Zn 0.82428 0.68197 0.54433 0.00000
Zn300 Zn 0.89299 0.69564 0.51515 0.00000
Zn301 Zn 0.85545 0.62578 0.50838 0.00000
Zn302 Zn 0.83181 0.68722 0.47438 0.00000
O303 O 0.79628 0.71643 0.53423 0.00000
O304 O 0.79347 0.71105 0.48081 0.00000
C305 C 0.84372 0.63431 0.43891 0.00000
C306 C 0.78584 0.62742 0.50707 0.00000
C307 C 0.78507 0.72344 0.50762 0.00000
O308 O 0.96456 0.70553 0.50559 0.00000
O309 O 0.92699 0.66778 0.50316 0.00000
O310 O 0.86159 0.62449 0.45875 0.00000
O311 O 0.82463 0.65712 0.44031 0.00000
O312 O 0.85768 0.72073 0.45249 0.00000
O313 O 0.89313 0.73252 0.48762 0.00000
C314 C 0.83739 0.62696 0.57930 0.00000
O315 O 0.85371 0.67271 0.51026 0.00000
O316 O 0.90023 0.71473 0.55648 0.00000
O317 O 0.84945 0.71409 0.57041 0.00000
O318 O 0.81124 0.61161 0.50172 0.00000
O319 O 0.78761 0.65195 0.52243 0.00000
H320 H 0.94966 0.71829 0.50283 0.00000
O321 O 0.85203 0.61795 0.55769 0.00000
O322 O 0.82167 0.65420 0.58030 0.00000
C323 C 0.88061 0.73719 0.46232 0.00000
C324 C 0.12329 0.27614 0.57318 0.00000
C325 C 0.04486 0.32263 0.49881 0.00000
Zn326 Zn 0.17572 0.31803 0.54433 0.00000
Zn327 Zn 0.10702 0.30436 0.51515 0.00000
Zn328 Zn 0.14455 0.37421 0.50838 0.00000
Zn329 Zn 0.16820 0.31278 0.47438 0.00000
O330 O 0.20372 0.28357 0.53423 0.00000
O331 O 0.20653 0.28895 0.48081 0.00000
C332 C 0.15628 0.36569 0.43891 0.00000
C333 C 0.21416 0.37258 0.50707 0.00000
C334 C 0.21493 0.27656 0.50762 0.00000
O335 O 0.03545 0.29447 0.50559 0.00000
O336 O 0.07301 0.33222 0.50316 0.00000
O337 O 0.13842 0.37551 0.45875 0.00000
O338 O 0.17538 0.34288 0.44031 0.00000
O339 O 0.14232 0.27927 0.45249 0.00000
O340 O 0.10688 0.26748 0.48762 0.00000
C341 C 0.16261 0.37304 0.57930 0.00000
O342 O 0.14629 0.32728 0.51026 0.00000
O343 O 0.09978 0.28527 0.55648 0.00000
O344 O 0.15055 0.28591 0.57041 0.00000
O345 O 0.18876 0.38839 0.50172 0.00000
O346 O 0.21239 0.34805 0.52243 0.00000
H347 H 0.05034 0.28171 0.50283 0.00000
O348 O 0.14798 0.38205 0.55769 0.00000
O349 O 0.17833 0.34580 0.58030 0.00000
C350 C 0.11939 0.26281 0.46232 0.00000
C351 C 0.27614 0.12329 0.42682 0.00000
C352 C 0.32263 0.04487 0.50119 0.00000
Zn353 Zn 0.31803 0.17573 0.45567 0.00000
Zn354 Zn 0.30436 0.10702 0.48485 0.00000
Zn355 Zn 0.37421 0.14456 0.49162 0.00000
Zn356 Zn 0.31278 0.16820 0.52562 0.00000
O357 O 0.28357 0.20372 0.46577 0.00000
O358 O 0.28895 0.20654 0.51919 0.00000
C359 C 0.36569 0.15629 0.56109 0.00000
C360 C 0.37258 0.21416 0.49293 0.00000
C361 C 0.27656 0.21494 0.49238 0.00000
O362 O 0.29447 0.03545 0.49441 0.00000
O363 O 0.33222 0.07301 0.49684 0.00000
O364 O 0.37551 0.13842 0.54125 0.00000
O365 O 0.34288 0.17538 0.55969 0.00000
O366 O 0.27927 0.14232 0.54751 0.00000
O367 O 0.26748 0.10688 0.51238 0.00000
C368 C 0.37304 0.16262 0.42070 0.00000
O369 O 0.32728 0.14629 0.48974 0.00000
O370 O 0.28527 0.09978 0.44352 0.00000
O371 O 0.28591 0.15056 0.42959 0.00000
O372 O 0.38839 0.18876 0.49828 0.00000
O373 O 0.34805 0.21240 0.47757 0.00000
H374 H 0.28171 0.05034 0.49717 0.00000
O375 O 0.38205 0.14798 0.44231 0.00000
O376 O 0.34580 0.17834 0.41970 0.00000
C377 C 0.26281 0.11939 0.53768 0.00000
C378 C 0.87671 0.27614 0.42682 0.00000
C379 C 0.95514 0.32263 0.50119 0.00000
Zn380 Zn 0.82428 0.31803 0.45567 0.00000
Zn381 Zn 0.89298 0.30436 0.48485 0.00000
Zn382 Zn 0.85545 0.37421 0.49162 0.00000
Zn383 Zn 0.83180 0.31278 0.52562 0.00000
O384 O 0.79628 0.28357 0.46577 0.00000
O385 O 0.79347 0.28895 0.51919 0.00000
C386 C 0.84372 0.36569 0.56109 0.00000
C387 C 0.78584 0.37258 0.49293 0.00000
C388 C 0.78507 0.27656 0.49238 0.00000
O389 O 0.96455 0.29447 0.49441 0.00000
O390 O 0.92699 0.33222 0.49684 0.00000
O391 O 0.86158 0.37551 0.54125 0.00000
O392 O 0.82462 0.34288 0.55969 0.00000
O393 O 0.85768 0.27927 0.54751 0.00000
O394 O 0.89312 0.26748 0.51238 0.00000
C395 C 0.83739 0.37304 0.42070 0.00000
O396 O 0.85371 0.32729 0.48974 0.00000
O397 O 0.90022 0.28527 0.44352 0.00000
O398 O 0.84945 0.28591 0.42959 0.00000
O399 O 0.81124 0.38839 0.49828 0.00000
O400 O 0.78761 0.34805 0.47757 0.00000
H401 H 0.94966 0.28171 0.49717 0.00000
O402 O 0.85202 0.38205 0.44231 0.00000
O403 O 0.82167 0.34580 0.41970 0.00000
C404 C 0.88061 0.26281 0.53768 0.00000
C405 C 0.42682 0.72386 0.87670 0.00000
C406 C 0.50118 0.67737 0.95513 0.00000
Zn407 Zn 0.45567 0.68197 0.82427 0.00000
Zn408 Zn 0.48485 0.69564 0.89298 0.00000
Zn409 Zn 0.49162 0.62579 0.85544 0.00000
Zn410 Zn 0.52562 0.68722 0.83180 0.00000
O411 O 0.46577 0.71643 0.79627 0.00000
O412 O 0.51919 0.71105 0.79346 0.00000
C413 C 0.56109 0.63431 0.84371 0.00000
C414 C 0.49293 0.62742 0.78583 0.00000
C415 C 0.49238 0.72344 0.78506 0.00000
O416 O 0.49441 0.70553 0.96455 0.00000
O417 O 0.49684 0.66778 0.92698 0.00000
O418 O 0.54125 0.62449 0.86158 0.00000
O419 O 0.55969 0.65712 0.82462 0.00000
O420 O 0.54751 0.72073 0.85767 0.00000
O421 O 0.51238 0.73252 0.89312 0.00000
C422 C 0.42070 0.62696 0.83738 0.00000
O423 O 0.48974 0.67272 0.85370 0.00000
O424 O 0.44352 0.71473 0.90022 0.00000
O425 O 0.42959 0.71409 0.84944 0.00000
O426 O 0.49828 0.61161 0.81124 0.00000
O427 O 0.47757 0.65195 0.78760 0.00000
H428 H 0.49717 0.71829 0.94965 0.00000
O429 O 0.44231 0.61795 0.85202 0.00000
O430 O 0.41970 0.65420 0.82166 0.00000
C431 C 0.53768 0.73719 0.88060 0.00000
C432 C 0.57318 0.72386 0.12330 0.00000
C433 C 0.49882 0.67737 0.04487 0.00000
Zn434 Zn 0.54433 0.68197 0.17573 0.00000
Zn435 Zn 0.51515 0.69564 0.10702 0.00000
Zn436 Zn 0.50838 0.62579 0.14456 0.00000
Zn437 Zn 0.47438 0.68722 0.16820 0.00000
O438 O 0.53423 0.71643 0.20373 0.00000
O439 O 0.48081 0.71105 0.20654 0.00000
C440 C 0.43891 0.63431 0.15629 0.00000
C441 C 0.50707 0.62742 0.21417 0.00000
C442 C 0.50762 0.72344 0.21494 0.00000
O443 O 0.50559 0.70553 0.03545 0.00000
O444 O 0.50316 0.66778 0.07302 0.00000
O445 O 0.45875 0.62449 0.13843 0.00000
O446 O 0.44032 0.65712 0.17538 0.00000
O447 O 0.45249 0.72073 0.14233 0.00000
O448 O 0.48762 0.73252 0.10688 0.00000
C449 C 0.57930 0.62696 0.16262 0.00000
O450 O 0.51026 0.67272 0.14630 0.00000
O451 O 0.55648 0.71473 0.09978 0.00000
O452 O 0.57041 0.71409 0.15056 0.00000
O453 O 0.50172 0.61161 0.18877 0.00000
O454 O 0.52243 0.65195 0.21240 0.00000
H455 H 0.50283 0.71829 0.05035 0.00000
O456 O 0.55769 0.61795 0.14798 0.00000
O457 O 0.58030 0.65420 0.17834 0.00000
C458 C 0.46232 0.73719 0.11940 0.00000
C459 C 0.27615 0.57318 0.12328 0.00000
C460 C 0.32263 0.49881 0.04485 0.00000
Zn461 Zn 0.31803 0.54433 0.17571 0.00000
Zn462 Zn 0.30436 0.51515 0.10700 0.00000
Zn463 Zn 0.37422 0.50838 0.14454 0.00000
Zn464 Zn 0.31278 0.47438 0.16819 0.00000
O465 O 0.28357 0.53423 0.20371 0.00000
O466 O 0.28895 0.48081 0.20652 0.00000
C467 C 0.36569 0.43891 0.15627 0.00000
C468 C 0.37258 0.50707 0.21415 0.00000
C469 C 0.27656 0.50762 0.21492 0.00000
O470 O 0.29447 0.50559 0.03543 0.00000
O471 O 0.33222 0.50316 0.07300 0.00000
O472 O 0.37551 0.45874 0.13841 0.00000
O473 O 0.34289 0.44031 0.17537 0.00000
O474 O 0.27927 0.45249 0.14231 0.00000
O475 O 0.26748 0.48762 0.10687 0.00000
C476 C 0.37304 0.57930 0.16261 0.00000
O477 O 0.32729 0.51026 0.14628 0.00000
O478 O 0.28527 0.55648 0.09977 0.00000
O479 O 0.28591 0.57041 0.15054 0.00000
O480 O 0.38839 0.50172 0.18875 0.00000
O481 O 0.34805 0.52243 0.21238 0.00000
H482 H 0.28172 0.50283 0.05033 0.00000
O483 O 0.38205 0.55768 0.14797 0.00000
O484 O 0.34580 0.58030 0.17832 0.00000
C485 C 0.26281 0.46232 0.11938 0.00000
C486 C 0.42682 0.27615 0.12329 0.00000
C487 C 0.50119 0.32263 0.04487 0.00000
Zn488 Zn 0.45567 0.31803 0.17572 0.00000
Zn489 Zn 0.48485 0.30436 0.10702 0.00000
Zn490 Zn 0.49162 0.37422 0.14455 0.00000
Zn491 Zn 0.52562 0.31278 0.16820 0.00000
O492 O 0.46577 0.28357 0.20372 0.00000
O493 O 0.51919 0.28895 0.20654 0.00000
C494 C 0.56109 0.36569 0.15628 0.00000
C495 C 0.49293 0.37258 0.21416 0.00000
C496 C 0.49238 0.27656 0.21493 0.00000
O497 O 0.49441 0.29447 0.03545 0.00000
O498 O 0.49684 0.33222 0.07301 0.00000
O499 O 0.54125 0.37551 0.13842 0.00000
O500 O 0.55969 0.34289 0.17538 0.00000
O501 O 0.54751 0.27927 0.14232 0.00000
O502 O 0.51238 0.26748 0.10688 0.00000
C503 C 0.42070 0.37304 0.16262 0.00000
O504 O 0.48974 0.32729 0.14629 0.00000
O505 O 0.44352 0.28527 0.09978 0.00000
O506 O 0.42959 0.28591 0.15055 0.00000
O507 O 0.49828 0.38839 0.18876 0.00000
O508 O 0.47757 0.34805 0.21239 0.00000
H509 H 0.49717 0.28171 0.05034 0.00000
O510 O 0.44231 0.38205 0.14798 0.00000
O511 O 0.41970 0.34580 0.17833 0.00000
C512 C 0.53768 0.26281 0.11939 0.00000
C513 C 0.27615 0.42682 0.87672 0.00000
C514 C 0.32263 0.50119 0.95515 0.00000
Zn515 Zn 0.31803 0.45567 0.82429 0.00000
Zn516 Zn 0.30436 0.48485 0.89299 0.00000
Zn517 Zn 0.37422 0.49162 0.85546 0.00000
Zn518 Zn 0.31278 0.52562 0.83181 0.00000
O519 O 0.28357 0.46577 0.79629 0.00000
O520 O 0.28895 0.51919 0.79348 0.00000
C521 C 0.36569 0.56109 0.84373 0.00000
C522 C 0.37258 0.49293 0.78585 0.00000
C523 C 0.27656 0.49238 0.78508 0.00000
O524 O 0.29447 0.49441 0.96456 0.00000
O525 O 0.33222 0.49684 0.92700 0.00000
O526 O 0.37551 0.54125 0.86159 0.00000
O527 O 0.34288 0.55969 0.82463 0.00000
O528 O 0.27927 0.54751 0.85769 0.00000
O529 O 0.26748 0.51238 0.89313 0.00000
C530 C 0.37304 0.42070 0.83740 0.00000
O531 O 0.32729 0.48974 0.85372 0.00000
O532 O 0.28527 0.44352 0.90023 0.00000
O533 O 0.28591 0.42959 0.84946 0.00000
O534 O 0.38839 0.49828 0.81125 0.00000
O535 O 0.34805 0.47757 0.78762 0.00000
H536 H 0.28172 0.49717 0.94967 0.00000
O537 O 0.38205 0.44231 0.85203 0.00000
O538 O 0.34580 0.41970 0.82168 0.00000
C539 C 0.26281 0.53768 0.88062 0.00000
C540 C 0.57318 0.27615 0.87671 0.00000
C541 C 0.49881 0.32263 0.95513 0.00000
Zn542 Zn 0.54433 0.31803 0.82428 0.00000
Zn543 Zn 0.51515 0.30436 0.89298 0.00000
Zn544 Zn 0.50838 0.37422 0.85545 0.00000
Zn545 Zn 0.47438 0.31278 0.83180 0.00000
O546 O 0.53423 0.28357 0.79628 0.00000
O547 O 0.48081 0.28895 0.79346 0.00000
C548 C 0.43891 0.36569 0.84372 0.00000
C549 C 0.50707 0.37258 0.78584 0.00000
C550 C 0.50762 0.27656 0.78507 0.00000
O551 O 0.50559 0.29447 0.96455 0.00000
O552 O 0.50316 0.33222 0.92699 0.00000
O553 O 0.45875 0.37551 0.86158 0.00000
O554 O 0.44031 0.34289 0.82462 0.00000
O555 O 0.45249 0.27927 0.85768 0.00000
O556 O 0.48762 0.26748 0.89312 0.00000
C557 C 0.57930 0.37304 0.83738 0.00000
O558 O 0.51026 0.32729 0.85371 0.00000
O559 O 0.55648 0.28527 0.90022 0.00000
O560 O 0.57041 0.28591 0.84945 0.00000
O561 O 0.50172 0.38839 0.81124 0.00000
O562 O 0.52243 0.34805 0.78761 0.00000
H563 H 0.50283 0.28171 0.94966 0.00000
O564 O 0.55769 0.38205 0.85202 0.00000
O565 O 0.58030 0.34580 0.82167 0.00000
C566 C 0.46232 0.26281 0.88061 0.00000
C567 C 0.72386 0.87671 0.42682 0.00000
C568 C 0.67737 0.95513 0.50119 0.00000
Zn569 Zn 0.68197 0.82428 0.45567 0.00000
Zn570 Zn 0.69564 0.89298 0.48485 0.00000
Zn571 Zn 0.62578 0.85545 0.49162 0.00000
Zn572 Zn 0.68722 0.83180 0.52562 0.00000
O573 O 0.71643 0.79628 0.46577 0.00000
O574 O 0.71105 0.79346 0.51919 0.00000
C575 C 0.63431 0.84371 0.56109 0.00000
C576 C 0.62742 0.78584 0.49293 0.00000
C577 C 0.72344 0.78507 0.49238 0.00000
O578 O 0.70553 0.96455 0.49441 0.00000
O579 O 0.66778 0.92699 0.49684 0.00000
O580 O 0.62449 0.86158 0.54125 0.00000
O581 O 0.65712 0.82462 0.55969 0.00000
O582 O 0.72073 0.85768 0.54751 0.00000
O583 O 0.73252 0.89312 0.51238 0.00000
C584 C 0.62696 0.83738 0.42070 0.00000
O585 O 0.67271 0.85371 0.48974 0.00000
O586 O 0.71473 0.90022 0.44352 0.00000
O587 O 0.71409 0.84945 0.42959 0.00000
O588 O 0.61161 0.81124 0.49828 0.00000
O589 O 0.65195 0.78761 0.47757 0.00000
H590 H 0.71829 0.94966 0.49717 0.00000
O591 O 0.61795 0.85202 0.44231 0.00000
O592 O 0.65420 0.82167 0.41970 0.00000
C593 C 0.73719 0.88061 0.53768 0.00000
C594 C 0.12329 0.57318 0.72385 0.00000
C595 C 0.04486 0.49881 0.67737 0.00000
Zn596 Zn 0.17572 0.54433 0.68197 0.00000
Zn597 Zn 0.10701 0.51515 0.69564 0.00000
Zn598 Zn 0.14455 0.50838 0.62578 0.00000
Zn599 Zn 0.16819 0.47438 0.68722 0.00000
O600 O 0.20371 0.53423 0.71643 0.00000
O601 O 0.20653 0.48081 0.71105 0.00000
C602 C 0.15628 0.43891 0.63431 0.00000
C603 C 0.21416 0.50707 0.62742 0.00000
C604 C 0.21493 0.50762 0.72344 0.00000
O605 O 0.03544 0.50559 0.70553 0.00000
O606 O 0.07301 0.50316 0.66778 0.00000
O607 O 0.13841 0.45875 0.62449 0.00000
O608 O 0.17537 0.44031 0.65712 0.00000
O609 O 0.14232 0.45249 0.72073 0.00000
O610 O 0.10687 0.48762 0.73252 0.00000
C611 C 0.16261 0.57930 0.62696 0.00000
O612 O 0.14629 0.51026 0.67271 0.00000
O613 O 0.09977 0.55648 0.71473 0.00000
O614 O 0.15055 0.57041 0.71409 0.00000
O615 O 0.18876 0.50172 0.61161 0.00000
O616 O 0.21239 0.52243 0.65195 0.00000
H617 H 0.05033 0.50283 0.71829 0.00000
O618 O 0.14797 0.55769 0.61795 0.00000
O619 O 0.17833 0.58030 0.65420 0.00000
C620 C 0.11938 0.46232 0.73719 0.00000
C621 C 0.42682 0.12328 0.72385 0.00000
C622 C 0.50119 0.04486 0.67737 0.00000
Zn623 Zn 0.45567 0.17571 0.68197 0.00000
Zn624 Zn 0.48485 0.10701 0.69564 0.00000
Zn625 Zn 0.49162 0.14454 0.62578 0.00000
Zn626 Zn 0.52562 0.16819 0.68722 0.00000
O627 O 0.46577 0.20371 0.71643 0.00000
O628 O 0.51919 0.20653 0.71105 0.00000
C629 C 0.56109 0.15628 0.63431 0.00000
C630 C 0.49293 0.21415 0.62742 0.00000
C631 C 0.49238 0.21492 0.72344 0.00000
O632 O 0.49441 0.03544 0.70553 0.00000
O633 O 0.49684 0.07300 0.66778 0.00000
O634 O 0.54125 0.13841 0.62449 0.00000
O635 O 0.55969 0.17537 0.65711 0.00000
O636 O 0.54751 0.14231 0.72073 0.00000
O637 O 0.51238 0.10687 0.73252 0.00000
C638 C 0.42070 0.16261 0.62696 0.00000
O639 O 0.48974 0.14628 0.67271 0.00000
O640 O 0.44352 0.09977 0.71473 0.00000
O641 O 0.42959 0.15054 0.71409 0.00000
O642 O 0.49828 0.18875 0.61161 0.00000
O643 O 0.47757 0.21239 0.65195 0.00000
H644 H 0.49717 0.05033 0.71829 0.00000
O645 O 0.44231 0.14797 0.61795 0.00000
O646 O 0.41970 0.17833 0.65420 0.00000
C647 C 0.53768 0.11938 0.73719 0.00000
C648 C 0.82959 0.37714 0.58439 0.00000
C649 C 0.82830 0.39031 0.61750 0.00000
H650 H 0.81835 0.35751 0.58285 0.00000
H651 H 0.81946 0.39136 0.57004 0.00000
H652 H 0.83841 0.37621 0.63053 0.00000
H653 H 0.80775 0.39453 0.62422 0.00000
C654 C 0.59894 0.14764 0.38873 0.00000
C655 C 0.62828 0.14478 0.40880 0.00000
H656 H 0.60014 0.13436 0.37039 0.00000
H657 H 0.58090 0.14068 0.40041 0.00000
H658 H 0.64501 0.15186 0.39695 0.00000
H659 H 0.63152 0.12432 0.41631 0.00000
C660 C 0.85732 0.61671 0.41465 0.00000
C661 C 0.84734 0.58861 0.39509 0.00000
H662 H 0.87186 0.61068 0.43097 0.00000
H663 H 0.86823 0.63165 0.40167 0.00000
H664 H 0.83679 0.57494 0.40822 0.00000
H665 H 0.86426 0.57888 0.38487 0.00000
C666 C 0.38432 0.85703 0.41552 0.00000
C667 C 0.41194 0.84612 0.39578 0.00000
H668 H 0.39112 0.87010 0.43276 0.00000
H669 H 0.37047 0.86978 0.40301 0.00000
H670 H 0.42455 0.83382 0.40844 0.00000
H671 H 0.42309 0.86283 0.38672 0.00000
C672 C 0.16989 0.38207 0.41938 0.00000
C673 C 0.17585 0.39409 0.38634 0.00000
H674 H 0.18599 0.36749 0.42590 0.00000
H675 H 0.17058 0.39923 0.43407 0.00000
H676 H 0.17479 0.37708 0.37291 0.00000
H677 H 0.19496 0.40491 0.38451 0.00000
C678 C 0.57690 0.61190 0.83499 0.00000
C679 C 0.60773 0.59871 0.82287 0.00000
H680 H 0.56293 0.61725 0.81795 0.00000
H681 H 0.56615 0.59630 0.84731 0.00000
H682 H 0.61746 0.61434 0.81140 0.00000
H683 H 0.60510 0.58025 0.81114 0.00000
C684 C 0.57679 0.38832 0.16470 0.00000
C685 C 0.60748 0.40162 0.17705 0.00000
H686 H 0.56252 0.38338 0.18161 0.00000
H687 H 0.56633 0.40370 0.15187 0.00000
H688 H 0.61695 0.38620 0.18901 0.00000
H689 H 0.60474 0.42034 0.18835 0.00000
C690 C 0.61310 0.82678 0.39193 0.00000
C691 C 0.57991 0.82868 0.37901 0.00000
H692 H 0.61830 0.80564 0.39828 0.00000
H693 H 0.62796 0.83238 0.37586 0.00000
H694 H 0.56634 0.82339 0.39509 0.00000
H695 H 0.57696 0.81607 0.36119 0.00000
C696 C 0.14814 0.61369 0.39786 0.00000
C697 C 0.14812 0.59252 0.36917 0.00000
H698 H 0.13888 0.63386 0.39326 0.00000
H699 H 0.13552 0.60452 0.41421 0.00000
H700 H 0.16060 0.60191 0.35411 0.00000
H701 H 0.12783 0.58833 0.36166 0.00000
C702 C 0.40657 0.85079 0.62872 0.00000
C703 C 0.38421 0.85274 0.60101 0.00000
H704 H 0.40906 0.87096 0.63877 0.00000
H705 H 0.39817 0.83689 0.64444 0.00000
H706 H 0.39311 0.86604 0.58636 0.00000
H707 H 0.36396 0.85919 0.60682 0.00000
C708 C 0.14799 0.59673 0.60946 0.00000
C709 C 0.14294 0.62609 0.58987 0.00000
H710 H 0.13258 0.59508 0.62601 0.00000
H711 H 0.14542 0.57833 0.59659 0.00000
H712 H 0.14581 0.64320 0.60289 0.00000
H713 H 0.12328 0.62645 0.57993 0.00000
C714 C 0.38154 0.17008 0.58100 0.00000
C715 C 0.39361 0.17552 0.61411 0.00000
H716 H 0.36633 0.18581 0.57506 0.00000
H717 H 0.39854 0.17183 0.56621 0.00000
H718 H 0.37676 0.17344 0.62762 0.00000
H719 H 0.40373 0.19495 0.61642 0.00000
C720 C 0.38934 0.17498 0.39457 0.00000
C721 C 0.42252 0.17009 0.38244 0.00000
H722 H 0.38731 0.19487 0.40528 0.00000
H723 H 0.37482 0.17560 0.37727 0.00000
H724 H 0.43572 0.16938 0.39963 0.00000
H725 H 0.42865 0.18548 0.36791 0.00000
C726 C 0.62894 0.85039 0.59352 0.00000
C727 C 0.60140 0.85261 0.61607 0.00000
H728 H 0.63948 0.87035 0.59136 0.00000
H729 H 0.64435 0.83595 0.60156 0.00000
H730 H 0.58705 0.86644 0.60750 0.00000
H731 H 0.60748 0.85851 0.63641 0.00000
C732 C 0.39457 0.61066 0.82502 0.00000
C733 C 0.38243 0.57748 0.82991 0.00000
H734 H 0.40527 0.61269 0.80513 0.00000
H735 H 0.37727 0.62518 0.82440 0.00000
H736 H 0.39963 0.56428 0.83061 0.00000
H737 H 0.36790 0.57135 0.81453 0.00000
C738 C 0.60868 0.57667 0.15399 0.00000
C739 C 0.58980 0.60215 0.17031 0.00000
H740 H 0.60311 0.55607 0.16165 0.00000
H741 H 0.60408 0.57665 0.13187 0.00000
H742 H 0.59497 0.60163 0.19138 0.00000
H743 H 0.56810 0.60011 0.16706 0.00000
C744 C 0.40773 0.62645 0.14621 0.00000
C745 C 0.38678 0.59760 0.14669 0.00000
H746 H 0.41341 0.63220 0.12502 0.00000
H747 H 0.39665 0.64417 0.15481 0.00000
H748 H 0.39823 0.58108 0.13851 0.00000
H749 H 0.36780 0.60065 0.13592 0.00000
C750 C 0.36979 0.40608 0.15245 0.00000
C751 C 0.39599 0.38216 0.14876 0.00000
H752 H 0.35602 0.40609 0.13444 0.00000
H753 H 0.35693 0.40074 0.17025 0.00000
H754 H 0.40793 0.38814 0.13167 0.00000
H755 H 0.38850 0.36153 0.14682 0.00000
C756 C 0.38180 0.38819 0.83708 0.00000
C757 C 0.41178 0.36944 0.83240 0.00000
H758 H 0.36617 0.38277 0.82157 0.00000
H759 H 0.37271 0.38331 0.85718 0.00000
H760 H 0.41993 0.37489 0.81305 0.00000
H761 H 0.40864 0.34772 0.83426 0.00000
C762 C 0.58993 0.39935 0.83541 0.00000
C763 C 0.60998 0.42390 0.85175 0.00000
H764 H 0.56843 0.40014 0.84258 0.00000
H765 H 0.58934 0.40342 0.81319 0.00000
H766 H 0.61020 0.41913 0.87291 0.00000
H767 H 0.60306 0.44448 0.84797 0.00000
C768 C 0.82522 0.39520 0.40207 0.00000
C769 C 0.83708 0.42620 0.38903 0.00000
H770 H 0.81385 0.39820 0.42146 0.00000
H771 H 0.81065 0.38580 0.38758 0.00000
H772 H 0.85113 0.43438 0.40339 0.00000
H773 H 0.82080 0.44030 0.38440 0.00000
C774 C 0.14809 0.38645 0.60195 0.00000
C775 C 0.14791 0.40754 0.63071 0.00000
H776 H 0.13857 0.36635 0.60639 0.00000
H777 H 0.13577 0.39578 0.58547 0.00000
H778 H 0.16011 0.39798 0.64589 0.00000
H779 H 0.12757 0.41191 0.63796 0.00000
C780 C 0.61622 0.16888 0.61088 0.00000
C781 C 0.58404 0.17090 0.62612 0.00000
H782 H 0.62667 0.18900 0.61093 0.00000
H783 H 0.62946 0.15485 0.62264 0.00000
H784 H 0.57195 0.18432 0.61411 0.00000
H785 H 0.58497 0.17721 0.64721 0.00000
C786 C 0.83095 0.57943 0.61619 0.00000
C787 C 0.82327 0.61212 0.60418 0.00000
H788 H 0.81392 0.57094 0.62852 0.00000
H789 H 0.83381 0.56530 0.59879 0.00000
H790 H 0.82092 0.62504 0.62145 0.00000
H791 H 0.80554 0.61246 0.59111 0.00000
C792 C 0.01663 0.50630 0.65356 0.00000
C793 C 0.98180 0.49954 0.64994 0.00000
H794 H 0.02771 0.50327 0.63401 0.00000
H795 H 0.01972 0.52794 0.65929 0.00000
H796 H 0.97973 0.47859 0.64469 0.00000
H797 H 0.97201 0.51276 0.63528 0.00000
C798 C 0.51383 0.98549 0.34193 0.00000
C799 C 0.51320 0.01954 0.33134 0.00000
H800 H 0.53430 0.97624 0.33880 0.00000
H801 H 0.50965 0.98423 0.36409 0.00000
H802 H 0.51706 0.01982 0.30999 0.00000
H803 H 0.52736 0.03221 0.34249 0.00000
C804 C 0.01651 0.49485 0.32225 0.00000
C805 C 0.98359 0.48342 0.32987 0.00000
H806 H 0.02970 0.47786 0.31507 0.00000
H807 H 0.01575 0.50984 0.30536 0.00000
H808 H 0.98521 0.46931 0.34627 0.00000
H809 H 0.97333 0.47471 0.31243 0.00000
C810 C 0.67944 0.50309 0.01564 0.00000
C811 C 0.67766 0.48875 0.98303 0.00000
H812 H 0.69572 0.49337 0.02806 0.00000
H813 H 0.68483 0.52498 0.01415 0.00000
H814 H 0.67223 0.46788 0.98536 0.00000
H815 H 0.69633 0.49123 0.97159 0.00000
C816 C 0.51571 0.01431 0.66683 0.00000
C817 C 0.50820 0.98099 0.67707 0.00000
H818 H 0.53049 0.02416 0.68093 0.00000
H819 H 0.52556 0.01409 0.64649 0.00000
H820 H 0.49860 0.98213 0.69649 0.00000
H821 H 0.52595 0.96794 0.67735 0.00000
C822 C 0.32881 0.98286 0.51120 0.00000
C823 C 0.33965 0.01641 0.51654 0.00000
H824 H 0.33398 0.96960 0.52886 0.00000
H825 H 0.30631 0.98225 0.50921 0.00000
H826 H 0.36128 0.01612 0.51810 0.00000
H827 H 0.33020 0.02574 0.53412 0.00000
C828 C 0.98470 0.67872 0.49370 0.00000
C829 C 0.01729 0.67951 0.50815 0.00000
H830 H 0.97270 0.69711 0.49937 0.00000
H831 H 0.98625 0.67889 0.47116 0.00000
H832 H 0.01489 0.67908 0.52970 0.00000
H833 H 0.02917 0.69682 0.50147 0.00000
C834 C 0.65464 0.01481 0.48899 0.00000
C835 C 0.66380 0.98043 0.48651 0.00000
H836 H 0.65162 0.02405 0.46851 0.00000
H837 H 0.63489 0.01676 0.49979 0.00000
H838 H 0.68290 0.97948 0.47627 0.00000
H839 H 0.64843 0.96820 0.47652 0.00000
C840 C 0.98531 0.34432 0.51206 0.00000
C841 C 0.01958 0.33458 0.51356 0.00000
H842 H 0.97608 0.34531 0.53275 0.00000
H843 H 0.98357 0.36510 0.50336 0.00000
H844 H 0.02031 0.31451 0.52178 0.00000
H845 H 0.03197 0.34870 0.52508 0.00000
C846 C 0.50246 0.67890 0.01622 0.00000
C847 C 0.51527 0.67307 0.98346 0.00000
H848 H 0.51759 0.68968 0.02922 0.00000
H849 H 0.48433 0.69234 0.01513 0.00000
H850 H 0.53243 0.65994 0.98539 0.00000
H851 H 0.52025 0.69170 0.97280 0.00000
C852 C 0.34890 0.49900 0.01586 0.00000
C853 C 0.34654 0.49188 0.98099 0.00000
H854 H 0.36457 0.48605 0.02590 0.00000
H855 H 0.35547 0.52040 0.01893 0.00000
H856 H 0.33998 0.47130 0.97896 0.00000
H857 H 0.36538 0.49568 0.97021 0.00000
C858 C 0.51427 0.32829 0.01446 0.00000
C859 C 0.50343 0.32011 0.98149 0.00000
H860 H 0.52323 0.31028 0.02492 0.00000
H861 H 0.53063 0.34386 0.01356 0.00000
H862 H 0.48764 0.30535 0.98328 0.00000
H863 H 0.51987 0.31313 0.96858 0.00000
C864 C 0.72960 0.50178 0.75207 0.00000
C865 C 0.75575 0.50477 0.72800 0.00000
H866 H 0.71173 0.51457 0.74648 0.00000
H867 H 0.72216 0.48046 0.75276 0.00000
H868 H 0.76244 0.52541 0.72815 0.00000
H869 H 0.74962 0.49820 0.70788 0.00000
C870 C 0.50425 0.22834 0.24999 0.00000
C871 C 0.48617 0.25166 0.22997 0.00000
H872 H 0.49531 0.20755 0.24857 0.00000
H873 H 0.52550 0.22660 0.24251 0.00000
H874 H 0.46603 0.25288 0.23795 0.00000
H875 H 0.48629 0.24643 0.20857 0.00000
C876 C 0.72964 0.49780 0.24803 0.00000
C877 C 0.75600 0.49487 0.27187 0.00000
H878 H 0.71206 0.48455 0.25347 0.00000
H879 H 0.72175 0.51898 0.24783 0.00000
H880 H 0.76311 0.47438 0.27124 0.00000
H881 H 0.74988 0.50090 0.29215 0.00000
C882 C 0.48429 0.75493 0.26300 0.00000
C883 C 0.48939 0.73868 0.23167 0.00000
H884 H 0.46296 0.76232 0.26510 0.00000
H885 H 0.48761 0.74030 0.27990 0.00000
H886 H 0.48625 0.75343 0.21607 0.00000
H887 H 0.47653 0.72098 0.22904 0.00000
C888 C 0.24851 0.49471 0.26983 0.00000
C889 C 0.27056 0.49242 0.24189 0.00000
H890 H 0.25247 0.47819 0.28485 0.00000
H891 H 0.25194 0.51417 0.28078 0.00000
H892 H 0.26646 0.47363 0.23185 0.00000
H893 H 0.29177 0.49431 0.24758 0.00000
C894 C 0.51244 0.76801 0.74902 0.00000
C895 C 0.49510 0.74947 0.77406 0.00000
H896 H 0.51503 0.78970 0.75510 0.00000
H897 H 0.53327 0.75968 0.74630 0.00000
H898 H 0.47521 0.75794 0.77586 0.00000
H899 H 0.50574 0.74915 0.79335 0.00000
C900 C 0.24542 0.73655 0.48461 0.00000
C901 C 0.26183 0.76787 0.48923 0.00000
H902 H 0.23868 0.73385 0.46313 0.00000
H903 H 0.25976 0.71963 0.48891 0.00000
H904 H 0.24735 0.78350 0.48514 0.00000
H905 H 0.27995 0.76993 0.47686 0.00000
C906 C 0.77203 0.25101 0.49998 0.00000
C907 C 0.74629 0.23302 0.51688 0.00000
H908 H 0.79043 0.25331 0.51302 0.00000
H909 H 0.77866 0.23958 0.48165 0.00000
H910 H 0.74037 0.24476 0.53414 0.00000
H911 H 0.75239 0.21260 0.52245 0.00000
C912 C 0.74983 0.77185 0.49688 0.00000
C913 C 0.76928 0.74788 0.51474 0.00000
H914 H 0.75033 0.79212 0.50703 0.00000
H915 H 0.75844 0.77491 0.47621 0.00000
H916 H 0.76021 0.74539 0.53429 0.00000
H917 H 0.79055 0.75347 0.51612 0.00000
C918 C 0.24856 0.26952 0.50641 0.00000
C919 C 0.26998 0.24107 0.50833 0.00000
H920 H 0.25182 0.28352 0.52394 0.00000
H921 H 0.25327 0.28147 0.48782 0.00000
H922 H 0.26465 0.23008 0.52626 0.00000
H923 H 0.29135 0.24643 0.50794 0.00000
C924 C 0.22971 0.50856 0.75005 0.00000
C925 C 0.25052 0.49029 0.77251 0.00000
H926 H 0.20774 0.50501 0.75440 0.00000
H927 H 0.23316 0.53074 0.75264 0.00000
H928 H 0.24676 0.46919 0.76920 0.00000
H929 H 0.24748 0.49605 0.79356 0.00000
C930 C 0.48562 0.23375 0.74790 0.00000
C931 C 0.50187 0.25112 0.77446 0.00000
H932 H 0.47922 0.21296 0.75432 0.00000
H933 H 0.46672 0.24464 0.74198 0.00000
H934 H 0.51995 0.24017 0.77933 0.00000
H935 H 0.48889 0.25392 0.79204 0.00000
loop_
_geom_bond_atom_site_label_1
_geom_bond_atom_site_label_2
_geom_bond_distance
_geom_bond_site_symmetry_2
_ccdc_geom_bond_type
C0 O19 1.282 . A
C0 O20 1.233 . A
C1 O11 1.291 . A
C1 O12 1.274 . A
Zn2 O6 1.930 . S
Zn2 O18 1.948 . S
Zn2 O20 2.053 . S
Zn2 O22 2.212 . S
Zn2 O25 1.929 . S
Zn3 O12 1.931 . S
Zn3 O16 1.950 . S
Zn3 O18 1.938 . S
Zn3 O19 1.954 . S
Zn4 O13 2.120 . S
Zn4 O18 1.992 . S
Zn4 O21 1.988 . S
Zn4 O24 2.121 . S
Zn5 O7 1.932 . S
Zn5 O14 1.951 . S
Zn5 O15 2.020 . S
Zn5 O18 1.885 . S
O6 C10 1.259 . A
O7 C10 1.301 . A
C8 O13 1.205 . A
C8 O14 1.262 . A
C9 O21 1.288 . A
C9 O22 1.229 . A
O11 H23 0.839 . S
O15 C26 1.267 . A
O16 C26 1.213 . A
C17 O24 1.171 . A
C17 O25 1.333 . A
C27 O46 1.282 . A
C27 O47 1.233 . A
C28 O38 1.291 . A
C28 O39 1.274 . A
Zn29 O33 1.930 . S
Zn29 O45 1.948 . S
Zn29 O47 2.053 . S
Zn29 O49 2.212 . S
Zn29 O52 1.929 . S
Zn30 O39 1.931 . S
Zn30 O43 1.950 . S
Zn30 O45 1.938 . S
Zn30 O46 1.954 . S
Zn31 O40 2.120 . S
Zn31 O45 1.992 . S
Zn31 O48 1.988 . S
Zn31 O51 2.121 . S
Zn32 O34 1.932 . S
Zn32 O41 1.951 . S
Zn32 O42 2.020 . S
Zn32 O45 1.885 . S
O33 C37 1.259 . A
O34 C37 1.301 . A
C35 O40 1.205 . A
C35 O41 1.262 . A
C36 O48 1.288 . A
C36 O49 1.229 . A
O38 H50 0.839 . S
O42 C53 1.267 . A
O43 C53 1.213 . A
C44 O51 1.171 . A
C44 O52 1.333 . A
C54 O73 1.282 . A
C54 O74 1.233 . A
C55 O65 1.291 . A
C55 O66 1.274 . A
Zn56 O60 1.930 . S
Zn56 O72 1.948 . S
Zn56 O74 2.053 . S
Zn56 O76 2.212 . S
Zn56 O79 1.929 . S
Zn57 O66 1.931 . S
Zn57 O70 1.950 . S
Zn57 O72 1.938 . S
Zn57 O73 1.954 . S
Zn58 O67 2.120 . S
Zn58 O72 1.992 . S
Zn58 O75 1.988 . S
Zn58 O78 2.121 . S
Zn59 O61 1.932 . S
Zn59 O68 1.951 . S
Zn59 O69 2.020 . S
Zn59 O72 1.885 . S
O60 C64 1.259 . A
O61 C64 1.301 . A
C62 O67 1.205 . A
C62 O68 1.262 . A
C63 O75 1.288 . A
C63 O76 1.229 . A
O65 H77 0.839 . S
O69 C80 1.267 . A
O70 C80 1.213 . A
C71 O78 1.171 . A
C71 O79 1.333 . A
C81 O100 1.282 . A
C81 O101 1.233 . A
C82 O92 1.291 . A
C82 O93 1.274 . A
Zn83 O87 1.930 . S
Zn83 O99 1.948 . S
Zn83 O101 2.053 . S
Zn83 O103 2.212 . S
Zn83 O106 1.929 . S
Zn84 O93 1.931 . S
Zn84 O97 1.950 . S
Zn84 O99 1.938 . S
Zn84 O100 1.954 . S
Zn85 O94 2.120 . S
Zn85 O99 1.992 . S
Zn85 O102 1.988 . S
Zn85 O105 2.121 . S
Zn86 O88 1.932 . S
Zn86 O95 1.951 . S
Zn86 O96 2.020 . S
Zn86 O99 1.885 . S
O87 C91 1.259 . A
O88 C91 1.301 . A
C89 O94 1.205 . A
C89 O95 1.262 . A
C90 O102 1.288 . A
C90 O103 1.229 . A
O92 H104 0.839 . S
O96 C107 1.267 . A
O97 C107 1.213 . A
C98 O105 1.171 . A
C98 O106 1.333 . A
C108 O127 1.282 . A
C108 O128 1.233 . A
C109 O119 1.291 . A
C109 O120 1.274 . A
Zn110 O114 1.930 . S
Zn110 O126 1.948 . S
Zn110 O128 2.053 . S
Zn110 O130 2.212 . S
Zn110 O133 1.929 . S
Zn111 O120 1.931 . S
Zn111 O124 1.950 . S
Zn111 O126 1.938 . S
Zn111 O127 1.954 . S
Zn112 O121 2.120 . S
Zn112 O126 1.992 . S
Zn112 O129 1.988 . S
Zn112 O132 2.121 . S
Zn113 O115 1.932 . S
Zn113 O122 1.951 . S
Zn113 O123 2.020 . S
Zn113 O126 1.885 . S
O114 C118 1.259 . A
O115 C118 1.301 . A
C116 O121 1.205 . A
C116 O122 1.262 . A
C117 O129 1.288 . A
C117 O130 1.229 . A
O119 H131 0.839 . S
O123 C134 1.267 . A
O124 C134 1.213 . A
C125 O132 1.171 . A
C125 O133 1.333 . A
C135 O154 1.282 . A
C135 O155 1.233 . A
C136 O146 1.291 . A
C136 O147 1.274 . A
Zn137 O141 1.930 . S
Zn137 O153 1.948 . S
Zn137 O155 2.053 . S
Zn137 O157 2.212 . S
Zn137 O160 1.929 . S
Zn138 O147 1.931 . S
Zn138 O151 1.950 . S
Zn138 O153 1.938 . S
Zn138 O154 1.954 . S
Zn139 O148 2.120 . S
Zn139 O153 1.992 . S
Zn139 O156 1.988 . S
Zn139 O159 2.121 . S
Zn140 O142 1.932 . S
Zn140 O149 1.951 . S
Zn140 O150 2.020 . S
Zn140 O153 1.885 . S
O141 C145 1.259 . A
O142 C145 1.301 . A
C143 O148 1.205 . A
C143 O149 1.262 . A
C144 O156 1.288 . A
C144 O157 1.229 . A
O146 H158 0.839 . S
O150 C161 1.267 . A
O151 C161 1.213 . A
C152 O159 1.171 . A
C152 O160 1.333 . A
C162 O181 1.282 . A
C162 O182 1.233 . A
C163 O173 1.291 . A
C163 O174 1.274 . A
Zn164 O168 1.930 . S
Zn164 O180 1.948 . S
Zn164 O182 2.053 . S
Zn164 O184 2.212 . S
Zn164 O187 1.929 . S
Zn165 O174 1.931 . S
Zn165 O178 1.950 . S
Zn165 O180 1.938 . S
Zn165 O181 1.954 . S
Zn166 O175 2.120 . S
Zn166 O180 1.992 . S
Zn166 O183 1.988 . S
Zn166 O186 2.121 . S
Zn167 O169 1.932 . S
Zn167 O176 1.951 . S
Zn167 O177 2.020 . S
Zn167 O180 1.885 . S
O168 C172 1.259 . A
O169 C172 1.301 . A
C170 O175 1.205 . A
C170 O176 1.262 . A
C171 O183 1.288 . A
C171 O184 1.229 . A
O173 H185 0.839 . S
O177 C188 1.267 . A
O178 C188 1.213 . A
C179 O186 1.171 . A
C179 O187 1.333 . A
C189 O208 1.282 . A
C189 O209 1.233 . A
C190 O200 1.291 . A
C190 O201 1.274 . A
Zn191 O195 1.930 . S
Zn191 O207 1.948 . S
Zn191 O209 2.053 . S
Zn191 O211 2.212 . S
Zn191 O214 1.929 . S
Zn192 O201 1.931 . S
Zn192 O205 1.950 . S
Zn192 O207 1.938 . S
Zn192 O208 1.954 . S
Zn193 O202 2.120 . S
Zn193 O207 1.992 . S
Zn193 O210 1.988 . S
Zn193 O213 2.121 . S
Zn194 O196 1.932 . S
Zn194 O203 1.951 . S
Zn194 O204 2.020 . S
Zn194 O207 1.885 . S
O195 C199 1.259 . A
O196 C199 1.301 . A
C197 O202 1.205 . A
C197 O203 1.262 . A
C198 O210 1.288 . A
C198 O211 1.229 . A
O200 H212 0.839 . S
O204 C215 1.267 . A
O205 C215 1.213 . A
C206 O213 1.171 . A
C206 O214 1.333 . A
C216 O235 1.282 . A
C216 O236 1.233 . A
C217 O227 1.291 . A
C217 O228 1.274 . A
Zn218 O222 1.930 . S
Zn218 O234 1.948 . S
Zn218 O236 2.053 . S
Zn218 O238 2.212 . S
Zn218 O241 1.929 . S
Zn219 O228 1.931 . S
Zn219 O232 1.950 . S
Zn219 O234 1.938 . S
Zn219 O235 1.954 . S
Zn220 O229 2.120 . S
Zn220 O234 1.992 . S
Zn220 O237 1.988 . S
Zn220 O240 2.121 . S
Zn221 O223 1.932 . S
Zn221 O230 1.951 . S
Zn221 O231 2.020 . S
Zn221 O234 1.885 . S
O222 C226 1.259 . A
O223 C226 1.301 . A
C224 O229 1.205 . A
C224 O230 1.262 . A
C225 O237 1.288 . A
C225 O238 1.229 . A
O227 H239 0.839 . S
O231 C242 1.267 . A
O232 C242 1.213 . A
C233 O240 1.171 . A
C233 O241 1.333 . A
C243 O262 1.282 . A
C243 O263 1.233 . A
C244 O254 1.291 . A
C244 O255 1.274 . A
Zn245 O249 1.930 . S
Zn245 O261 1.948 . S
Zn245 O263 2.053 . S
Zn245 O265 2.212 . S
Zn245 O268 1.929 . S
Zn246 O255 1.931 . S
Zn246 O259 1.950 . S
Zn246 O261 1.938 . S
Zn246 O262 1.954 . S
Zn247 O256 2.120 . S
Zn247 O261 1.992 . S
Zn247 O264 1.988 . S
Zn247 O267 2.121 . S
Zn248 O250 1.932 . S
Zn248 O257 1.951 . S
Zn248 O258 2.020 . S
Zn248 O261 1.885 . S
O249 C253 1.259 . A
O250 C253 1.301 . A
C251 O256 1.205 . A
C251 O257 1.262 . A
C252 O264 1.288 . A
C252 O265 1.229 . A
O254 H266 0.839 . S
O258 C269 1.267 . A
O259 C269 1.213 . A
C260 O267 1.171 . A
C260 O268 1.333 . A
C270 O289 1.282 . A
C270 O290 1.233 . A
C271 O281 1.291 . A
C271 O282 1.274 . A
Zn272 O276 1.930 . S
Zn272 O288 1.948 . S
Zn272 O290 2.053 . S
Zn272 O292 2.212 . S
Zn272 O295 1.929 . S
Zn273 O282 1.931 . S
Zn273 O286 1.950 . S
Zn273 O288 1.938 . S
Zn273 O289 1.954 . S
Zn274 O283 2.120 . S
Zn274 O288 1.992 . S
Zn274 O291 1.988 . S
Zn274 O294 2.121 . S
Zn275 O277 1.932 . S
Zn275 O284 1.951 . S
Zn275 O285 2.020 . S
Zn275 O288 1.885 . S
O276 C280 1.259 . A
O277 C280 1.301 . A
C278 O283 1.205 . A
C278 O284 1.262 . A
C279 O291 1.288 . A
C279 O292 1.229 . A
O281 H293 0.839 . S
O285 C296 1.267 . A
O286 C296 1.213 . A
C287 O294 1.171 . A
C287 O295 1.333 . A
C297 O316 1.282 . A
C297 O317 1.233 . A
C298 O308 1.291 . A
C298 O309 1.274 . A
Zn299 O303 1.930 . S
Zn299 O315 1.948 . S
Zn299 O317 2.053 . S
Zn299 O319 2.212 . S
Zn299 O322 1.929 . S
Zn300 O309 1.931 . S
Zn300 O313 1.950 . S
Zn300 O315 1.938 . S
Zn300 O316 1.954 . S
Zn301 O310 2.120 . S
Zn301 O315 1.992 . S
Zn301 O318 1.988 . S
Zn301 O321 2.121 . S
Zn302 O304 1.932 . S
Zn302 O311 1.951 . S
Zn302 O312 2.020 . S
Zn302 O315 1.885 . S
O303 C307 1.259 . A
O304 C307 1.301 . A
C305 O310 1.205 . A
C305 O311 1.262 . A
C306 O318 1.288 . A
C306 O319 1.229 . A
O308 H320 0.839 . S
O312 C323 1.267 . A
O313 C323 1.213 . A
C314 O321 1.171 . A
C314 O322 1.333 . A
C324 O343 1.282 . A
C324 O344 1.233 . A
C325 O335 1.291 . A
C325 O336 1.274 . A
Zn326 O330 1.930 . S
Zn326 O342 1.948 . S
Zn326 O344 2.053 . S
Zn326 O346 2.212 . S
Zn326 O349 1.929 . S
Zn327 O336 1.931 . S
Zn327 O340 1.950 . S
Zn327 O342 1.938 . S
Zn327 O343 1.954 . S
Zn328 O337 2.120 . S
Zn328 O342 1.992 . S
Zn328 O345 1.988 . S
Zn328 O348 2.121 . S
Zn329 O331 1.932 . S
Zn329 O338 1.951 . S
Zn329 O339 2.020 . S
Zn329 O342 1.885 . S
O330 C334 1.259 . A
O331 C334 1.301 . A
C332 O337 1.205 . A
C332 O338 1.262 . A
C333 O345 1.288 . A
C333 O346 1.229 . A
O335 H347 0.839 . S
O339 C350 1.267 . A
O340 C350 1.213 . A
C341 O348 1.171 . A
C341 O349 1.333 . A
C351 O370 1.282 . A
C351 O371 1.233 . A
C352 O362 1.291 . A
C352 O363 1.274 . A
Zn353 O357 1.930 . S
Zn353 O369 1.948 . S
Zn353 O371 2.053 . S
Zn353 O373 2.212 . S
Zn353 O376 1.929 . S
Zn354 O363 1.931 . S
Zn354 O367 1.950 . S
Zn354 O369 1.938 . S
Zn354 O370 1.954 . S
Zn355 O364 2.120 . S
Zn355 O369 1.992 . S
Zn355 O372 1.988 . S
Zn355 O375 2.121 . S
Zn356 O358 1.932 . S
Zn356 O365 1.951 . S
Zn356 O366 2.020 . S
Zn356 O369 1.885 . S
O357 C361 1.259 . A
O358 C361 1.301 . A
C359 O364 1.205 . A
C359 O365 1.262 . A
C360 O372 1.288 . A
C360 O373 1.229 . A
O362 H374 0.839 . S
O366 C377 1.267 . A
O367 C377 1.213 . A
C368 O375 1.171 . A
C368 O376 1.333 . A
C378 O397 1.282 . A
C378 O398 1.233 . A
C379 O389 1.291 . A
C379 O390 1.274 . A
Zn380 O384 1.930 . S
Zn380 O396 1.948 . S
Zn380 O398 2.053 . S
Zn380 O400 2.212 . S
Zn380 O403 1.929 . S
Zn381 O390 1.931 . S
Zn381 O394 1.950 . S
Zn381 O396 1.938 . S
Zn381 O397 1.954 . S
Zn382 O391 2.120 . S
Zn382 O396 1.992 . S
Zn382 O399 1.988 . S
Zn382 O402 2.121 . S
Zn383 O385 1.932 . S
Zn383 O392 1.951 . S
Zn383 O393 2.020 . S
Zn383 O396 1.885 . S
O384 C388 1.259 . A
O385 C388 1.301 . A
C386 O391 1.205 . A
C386 O392 1.262 . A
C387 O399 1.288 . A
C387 O400 1.229 . A
O389 H401 0.839 . S
O393 C404 1.267 . A
O394 C404 1.213 . A
C395 O402 1.171 . A
C395 O403 1.333 . A
C405 O424 1.282 . A
C405 O425 1.233 . A
C406 O416 1.291 . A
C406 O417 1.274 . A
Zn407 O411 1.930 . S
Zn407 O423 1.948 . S
Zn407 O425 2.053 . S
Zn407 O427 2.212 . S
Zn407 O430 1.929 . S
Zn408 O417 1.931 . S
Zn408 O421 1.950 . S
Zn408 O423 1.938 . S
Zn408 O424 1.954 . S
Zn409 O418 2.120 . S
Zn409 O423 1.992 . S
Zn409 O426 1.988 . S
Zn409 O429 2.121 . S
Zn410 O412 1.932 . S
Zn410 O419 1.951 . S
Zn410 O420 2.020 . S
Zn410 O423 1.885 . S
O411 C415 1.259 . A
O412 C415 1.301 . A
C413 O418 1.205 . A
C413 O419 1.262 . A
C414 O426 1.288 . A
C414 O427 1.229 . A
O416 H428 0.839 . S
O420 C431 1.267 . A
O421 C431 1.213 . A
C422 O429 1.171 . A
C422 O430 1.333 . A
C432 O451 1.282 . A
C432 O452 1.233 . A
C433 O443 1.291 . A
C433 O444 1.274 . A
Zn434 O438 1.930 . S
Zn434 O450 1.948 . S
Zn434 O452 2.053 . S
Zn434 O454 2.212 . S
Zn434 O457 1.929 . S
Zn435 O444 1.931 . S
Zn435 O448 1.950 . S
Zn435 O450 1.938 . S
Zn435 O451 1.954 . S
Zn436 O445 2.120 . S
Zn436 O450 1.992 . S
Zn436 O453 1.988 . S
Zn436 O456 2.121 . S
Zn437 O439 1.932 . S
Zn437 O446 1.951 . S
Zn437 O447 2.020 . S
Zn437 O450 1.885 . S
O438 C442 1.259 . A
O439 C442 1.301 . A
C440 O445 1.205 . A
C440 O446 1.262 . A
C441 O453 1.288 . A
C441 O454 1.229 . A
O443 H455 0.839 . S
O447 C458 1.267 . A
O448 C458 1.213 . A
C449 O456 1.171 . A
C449 O457 1.333 . A
C459 O478 1.282 . A
C459 O479 1.233 . A
C460 O470 1.291 . A
C460 O471 1.274 . A
Zn461 O465 1.930 . S
Zn461 O477 1.948 . S
Zn461 O479 2.053 . S
Zn461 O481 2.212 . S
Zn461 O484 1.929 . S
Zn462 O471 1.931 . S
Zn462 O475 1.950 . S
Zn462 O477 1.938 . S
Zn462 O478 1.954 . S
Zn463 O472 2.120 . S
Zn463 O477 1.992 . S
Zn463 O480 1.988 . S
Zn463 O483 2.121 . S
Zn464 O466 1.932 . S
Zn464 O473 1.951 . S
Zn464 O474 2.020 . S
Zn464 O477 1.885 . S
O465 C469 1.259 . A
O466 C469 1.301 . A
C467 O472 1.205 . A
C467 O473 1.262 . A
C468 O480 1.288 . A
C468 O481 1.229 . A
O470 H482 0.839 . S
O474 C485 1.267 . A
O475 C485 1.213 . A
C476 O483 1.171 . A
C476 O484 1.333 . A
C486 O505 1.282 . A
C486 O506 1.233 . A
C487 O497 1.291 . A
C487 O498 1.274 . A
Zn488 O492 1.930 . S
Zn488 O504 1.948 . S
Zn488 O506 2.053 . S
Zn488 O508 2.212 . S
Zn488 O511 1.929 . S
Zn489 O498 1.931 . S
Zn489 O502 1.950 . S
Zn489 O504 1.938 . S
Zn489 O505 1.954 . S
Zn490 O499 2.120 . S
Zn490 O504 1.992 . S
Zn490 O507 1.988 . S
Zn490 O510 2.121 . S
Zn491 O493 1.932 . S
Zn491 O500 1.951 . S
Zn491 O501 2.020 . S
Zn491 O504 1.885 . S
O492 C496 1.259 . A
O493 C496 1.301 . A
C494 O499 1.205 . A
C494 O500 1.262 . A
C495 O507 1.288 . A
C495 O508 1.229 . A
O497 H509 0.839 . S
O501 C512 1.267 . A
O502 C512 1.213 . A
C503 O510 1.171 . A
C503 O511 1.333 . A
C513 O532 1.282 . A
C513 O533 1.233 . A
C514 O524 1.291 . A
C514 O525 1.274 . A
Zn515 O519 1.930 . S
Zn515 O531 1.948 . S
Zn515 O533 2.053 . S
Zn515 O535 2.212 . S
Zn515 O538 1.929 . S
Zn516 O525 1.931 . S
Zn516 O529 1.950 . S
Zn516 O531 1.938 . S
Zn516 O532 1.954 . S
Zn517 O526 2.120 . S
Zn517 O531 1.992 . S
Zn517 O534 1.988 . S
Zn517 O537 2.121 . S
Zn518 O520 1.932 . S
Zn518 O527 1.951 . S
Zn518 O528 2.020 . S
Zn518 O531 1.885 . S
O519 C523 1.259 . A
O520 C523 1.301 . A
C521 O526 1.205 . A
C521 O527 1.262 . A
C522 O534 1.288 . A
C522 O535 1.229 . A
O524 H536 0.839 . S
O528 C539 1.267 . A
O529 C539 1.213 . A
C530 O537 1.171 . A
C530 O538 1.333 . A
C540 O559 1.282 . A
C540 O560 1.233 . A
C541 O551 1.291 . A
C541 O552 1.274 . A
Zn542 O546 1.930 . S
Zn542 O558 1.948 . S
Zn542 O560 2.053 . S
Zn542 O562 2.212 . S
Zn542 O565 1.929 . S
Zn543 O552 1.931 . S
Zn543 O556 1.950 . S
Zn543 O558 1.938 . S
Zn543 O559 1.954 . S
Zn544 O553 2.120 . S
Zn544 O558 1.992 . S
Zn544 O561 1.988 . S
Zn544 O564 2.121 . S
Zn545 O547 1.932 . S
Zn545 O554 1.951 . S
Zn545 O555 2.020 . S
Zn545 O558 1.885 . S
O546 C550 1.259 . A
O547 C550 1.301 . A
C548 O553 1.205 . A
C548 O554 1.262 . A
C549 O561 1.288 . A
C549 O562 1.229 . A
O551 H563 0.839 . S
O555 C566 1.267 . A
O556 C566 1.213 . A
C557 O564 1.171 . A
C557 O565 1.333 . A
C567 O586 1.282 . A
C567 O587 1.233 . A
C568 O578 1.291 . A
C568 O579 1.274 . A
Zn569 O573 1.930 . S
Zn569 O585 1.948 . S
Zn569 O587 2.053 . S
Zn569 O589 2.212 . S
Zn569 O592 1.929 . S
Zn570 O579 1.931 . S
Zn570 O583 1.950 . S
Zn570 O585 1.938 . S
Zn570 O586 1.954 . S
Zn571 O580 2.120 . S
Zn571 O585 1.992 . S
Zn571 O588 1.988 . S
Zn571 O591 2.121 . S
Zn572 O574 1.932 . S
Zn572 O581 1.951 . S
Zn572 O582 2.020 . S
Zn572 O585 1.885 . S
O573 C577 1.259 . A
O574 C577 1.301 . A
C575 O580 1.205 . A
C575 O581 1.262 . A
C576 O588 1.288 . A
C576 O589 1.229 . A
O578 H590 0.839 . S
O582 C593 1.267 . A
O583 C593 1.213 . A
C584 O591 1.171 . A
C584 O592 1.333 . A
C594 O613 1.282 . A
C594 O614 1.233 . A
C595 O605 1.291 . A
C595 O606 1.274 . A
Zn596 O600 1.930 . S
Zn596 O612 1.948 . S
Zn596 O614 2.053 . S
Zn596 O616 2.212 . S
Zn596 O619 1.929 . S
Zn597 O606 1.931 . S
Zn597 O610 1.950 . S
Zn597 O612 1.938 . S
Zn597 O613 1.954 . S
Zn598 O607 2.120 . S
Zn598 O612 1.992 . S
Zn598 O615 1.988 . S
Zn598 O618 2.121 . S
Zn599 O601 1.932 . S
Zn599 O608 1.951 . S
Zn599 O609 2.020 . S
Zn599 O612 1.885 . S
O600 C604 1.259 . A
O601 C604 1.301 . A
C602 O607 1.205 . A
C602 O608 1.262 . A
C603 O615 1.288 . A
C603 O616 1.229 . A
O605 H617 0.839 . S
O609 C620 1.267 . A
O610 C620 1.213 . A
C611 O618 1.171 . A
C611 O619 1.333 . A
C621 O640 1.282 . A
C621 O641 1.233 . A
C622 O632 1.291 . A
C622 O633 1.274 . A
Zn623 O627 1.930 . S
Zn623 O639 1.948 . S
Zn623 O641 2.053 . S
Zn623 O643 2.212 . S
Zn623 O646 1.929 . S
Zn624 O633 1.931 . S
Zn624 O637 1.950 . S
Zn624 O639 1.938 . S
Zn624 O640 1.954 . S
Zn625 O634 2.120 . S
Zn625 O639 1.992 . S
Zn625 O642 1.988 . S
Zn625 O645 2.121 . S
Zn626 O628 1.932 . S
Zn626 O635 1.951 . S
Zn626 O636 2.020 . S
Zn626 O639 1.885 . S
O627 C631 1.259 . A
O628 C631 1.301 . A
C629 O634 1.205 . A
C629 O635 1.262 . A
C630 O642 1.288 . A
C630 O643 1.229 . A
O632 H644 0.839 . S
O636 C647 1.267 . A
O637 C647 1.213 . A
C638 O645 1.171 . A
C638 O646 1.333 . A
C648 C649 1.511 . S
C648 H650 0.961 . S
C648 H651 0.958 . S
C649 H652 0.919 . S
C649 H653 0.934 . S
C654 C655 1.511 . S
C654 H656 0.961 . S
C654 H657 0.958 . S
C655 H658 0.919 . S
C655 H659 0.934 . S
C660 C661 1.511 . S
C660 H662 0.961 . S
C660 H663 0.958 . S
C661 H664 0.919 . S
C661 H665 0.934 . S
C666 C667 1.511 . S
C666 H668 0.961 . S
C666 H669 0.958 . S
C667 H670 0.919 . S
C667 H671 0.934 . S
C672 C673 1.511 . S
C672 H674 0.961 . S
C672 H675 0.958 . S
C673 H676 0.919 . S
C673 H677 0.934 . S
C678 C679 1.511 . S
C678 H680 0.961 . S
C678 H681 0.958 . S
C679 H682 0.919 . S
C679 H683 0.934 . S
C684 C685 1.511 . S
C684 H686 0.961 . S
C684 H687 0.958 . S
C685 H688 0.919 . S
C685 H689 0.934 . S
C690 C691 1.511 . S
C690 H692 0.961 . S
C690 H693 0.958 . S
C691 H694 0.919 . S
C691 H695 0.934 . S
C696 C697 1.511 . S
C696 H698 0.961 . S
C696 H699 0.958 . S
C697 H700 0.919 . S
C697 H701 0.934 . S
C702 C703 1.511 . S
C702 H704 0.961 . S
C702 H705 0.958 . S
C703 H706 0.919 . S
C703 H707 0.934 . S
C708 C709 1.511 . S
C708 H710 0.961 . S
C708 H711 0.958 . S
C709 H712 0.919 . S
C709 H713 0.934 . S
C714 C715 1.511 . S
C714 H716 0.961 . S
C714 H717 0.958 . S
C715 H718 0.919 . S
C715 H719 0.934 . S
C720 C721 1.511 . S
C720 H722 0.961 . S
C720 H723 0.958 . S
C721 H724 0.919 . S
C721 H725 0.934 . S
C726 C727 1.511 . S
C726 H728 0.961 . S
C726 H729 0.958 . S
C727 H730 0.919 . S
C727 H731 0.934 . S
C732 C733 1.511 . S
C732 H734 0.961 . S
C732 H735 0.958 . S
C733 H736 0.919 . S
C733 H737 0.934 . S
C738 C739 1.511 . S
C738 H740 0.961 . S
C738 H741 0.958 . S
C739 H742 0.919 . S
C739 H743 0.934 . S
C744 C745 1.511 . S
C744 H746 0.961 . S
C744 H747 0.958 . S
C745 H748 0.919 . S
C745 H749 0.934 . S
C750 C751 1.511 . S
C750 H752 0.961 . S
C750 H753 0.958 . S
C751 H754 0.919 . S
C751 H755 0.934 . S
C756 C757 1.511 . S
C756 H758 0.961 . S
C756 H759 0.958 . S
C757 H760 0.919 . S
C757 H761 0.934 . S
C762 C763 1.511 . S
C762 H764 0.961 . S
C762 H765 0.958 . S
C763 H766 0.919 . S
C763 H767 0.934 . S
C768 C769 1.511 . S
C768 H770 0.961 . S
C768 H771 0.958 . S
C769 H772 0.919 . S
C769 H773 0.934 . S
C774 C775 1.511 . S
C774 H776 0.961 . S
C774 H777 0.958 . S
C775 H778 0.919 . S
C775 H779 0.934 . S
C780 C781 1.511 . S
C780 H782 0.961 . S
C780 H783 0.958 . S
C781 H784 0.919 . S
C781 H785 0.934 . S
C786 C787 1.511 . S
C786 H788 0.961 . S
C786 H789 0.958 . S
C787 H790 0.919 . S
C787 H791 0.934 . S
C792 C793 1.511 1_455 S
C792 H794 0.961 . S
C792 H795 0.958 . S
C793 H796 0.919 . S
C793 H797 0.934 . S
C798 C799 1.511 1_565 S
C798 H800 0.961 . S
C798 H801 0.958 . S
C799 H802 0.919 . S
C799 H803 0.934 . S
C804 C805 1.511 1_455 S
C804 H806 0.961 . S
C804 H807 0.958 . S
C805 H808 0.919 . S
C805 H809 0.934 . S
C810 C811 1.511 1_554 S
C810 H812 0.961 . S
C810 H813 0.958 . S
C811 H814 0.919 . S
C811 H815 0.934 . S
C816 C817 1.511 1_545 S
C816 H818 0.961 . S
C816 H819 0.958 . S
C817 H820 0.919 . S
C817 H821 0.934 . S
C822 C823 1.511 1_565 S
C822 H824 0.961 . S
C822 H825 0.958 . S
C823 H826 0.919 . S
C823 H827 0.934 . S
C828 C829 1.511 1_655 S
C828 H830 0.961 . S
C828 H831 0.958 . S
C829 H832 0.919 . S
C829 H833 0.934 . S
C834 C835 1.511 1_545 S
C834 H836 0.961 . S
C834 H837 0.958 . S
C835 H838 0.919 . S
C835 H839 0.934 . S
C840 C841 1.511 1_655 S
C840 H842 0.961 . S
C840 H843 0.958 . S
C841 H844 0.919 . S
C841 H845 0.934 . S
C846 C847 1.511 1_554 S
C846 H848 0.961 . S
C846 H849 0.958 . S
C847 H850 0.919 . S
C847 H851 0.934 . S
C852 C853 1.511 1_554 S
C852 H854 0.961 . S
C852 H855 0.958 . S
C853 H856 0.919 . S
C853 H857 0.934 . S
C858 C859 1.511 1_554 S
C858 H860 0.961 . S
C858 H861 0.958 . S
C859 H862 0.919 . S
C859 H863 0.934 . S
C864 C865 1.511 . S
C864 H866 0.961 . S
C864 H867 0.958 . S
C865 H868 0.919 . S
C865 H869 0.934 . S
C870 C871 1.511 . S
C870 H872 0.961 . S
C870 H873 0.958 . S
C871 H874 0.919 . S
C871 H875 0.934 . S
C876 C877 1.511 . S
C876 H878 0.961 . S
C876 H879 0.958 . S
C877 H880 0.919 . S
C877 H881 0.934 . S
C882 C883 1.511 . S
C882 H884 0.961 . S
C882 H885 0.958 . S
C883 H886 0.919 . S
C883 H887 0.934 . S
C888 C889 1.511 . S
C888 H890 0.961 . S
C888 H891 0.958 . S
C889 H892 0.919 . S
C889 H893 0.934 . S
C894 C895 1.511 . S
C894 H896 0.961 . S
C894 H897 0.958 . S
C895 H898 0.919 . S
C895 H899 0.934 . S
C900 C901 1.511 . S
C900 H902 0.961 . S
C900 H903 0.958 . S
C901 H904 0.919 . S
C901 H905 0.934 . S
C906 C907 1.511 . S
C906 H908 0.961 . S
C906 H909 0.958 . S
C907 H910 0.919 . S
C907 H911 0.934 . S
C912 C913 1.511 . S
C912 H914 0.961 . S
C912 H915 0.958 . S
C913 H916 0.919 . S
C913 H917 0.934 . S
C918 C919 1.511 . S
C918 H920 0.961 . S
C918 H921 0.958 . S
C919 H922 0.919 . S
C919 H923 0.934 . S
C924 C925 1.511 . S
C924 H926 0.961 . S
C924 H927 0.958 . S
C925 H928 0.919 . S
C925 H929 0.934 . S
C930 C931 1.511 . S
C930 H932 0.961 . S
C930 H933 0.958 . S
C931 H934 0.919 . S
C931 H935 0.934 . S
C648 C386 1.253 . S
C649 C17 1.403 . S
C654 C44 1.240 . S
C655 C278 1.390 . S
C660 C305 1.395 . S
C661 C71 1.099 . S
C666 C224 1.387 . S
C667 C98 1.097 . S
C672 C332 1.225 . S
C673 C125 1.380 . S
C678 C413 1.220 . S
C679 C152 1.311 . S
C684 C494 1.220 . S
C685 C179 1.307 . S
C690 C584 1.426 . S
C691 C89 1.167 . S
C696 C260 1.276 . S
C697 C116 1.384 . S
C702 C197 1.423 . S
C703 C233 1.222 . S
C708 C611 1.216 . S
C709 C251 1.389 . S
C714 C359 1.227 . S
C715 C638 1.384 . S
C720 C368 1.407 . S
C721 C35 1.153 . S
C726 C575 1.422 . S
C727 C206 1.227 . S
C732 C422 1.407 . S
C733 C521 1.153 . S
C738 C170 1.275 . S
C739 C449 1.187 . S
C744 C440 1.428 . S
C745 C476 1.181 . S
C750 C467 1.412 . S
C751 C503 1.261 . S
C756 C530 1.427 . S
C757 C548 1.256 . S
C762 C557 1.206 . S
C763 C143 1.258 . S
C768 C395 1.331 . S
C769 C62 1.161 . S
C774 C341 1.274 . S
C775 C602 1.385 . S
C780 C287 1.438 . S
C781 C629 1.204 . S
C786 C8 1.219 . S
C787 C314 1.366 . S
C792 C595 1.597 . S
C793 C1 1.623 . S
C798 C82 1.616 . S
C799 C28 1.288 . S
C804 C109 1.231 . S
C805 C55 1.405 . S
C810 C163 1.244 . S
C811 C136 1.257 . S
C816 C622 1.502 . S
C817 C190 1.165 . S
C822 C217 1.313 . S
C823 C352 1.549 . S
C828 C298 1.273 . S
C829 C244 1.208 . S
C834 C271 1.651 . S
C835 C568 1.366 . S
C840 C379 1.641 . S
C841 C325 1.340 . S
C846 C433 1.226 . S
C847 C406 1.353 . S
C852 C460 1.658 . S
C853 C514 1.544 . S
C858 C487 1.423 . S
C859 C541 1.139 . S
C864 C145 1.445 . S
C865 C10 1.363 . S
C870 C37 1.269 . S
C871 C496 1.261 . S
C876 C172 1.446 . S
C877 C64 1.360 . S
C882 C91 1.442 . S
C883 C442 1.232 . S
C888 C118 1.455 . S
C889 C469 1.337 . S
C894 C199 1.319 . S
C895 C415 1.203 . S
C900 C253 1.445 . S
C901 C226 1.236 . S
C906 C388 1.258 . S
C907 C280 1.296 . S
C912 C577 1.265 . S
C913 C307 1.270 . S
C918 C334 1.457 . S
C919 C361 1.327 . S
C924 C604 1.290 . S
C925 C523 1.228 . S
C930 C631 1.339 . S
C931 C550 1.193 . S
