# Generated by pormake.
# Topology lta, (4)-cn, num edge types: 1
# Building blocks:
#     Node 0, Type 0, BuildingBlock: N671, # of connection points: 5
#     Node 1, Type 0, BuildingBlock: N671, # of connection points: 5
#     Node 2, Type 0, BuildingBlock: N671, # of connection points: 5
#     Node 3, Type 0, BuildingBlock: N671, # of connection points: 5
#     Node 4, Type 0, BuildingBlock: N671, # of connection points: 5
#     Node 5, Type 0, BuildingBlock: N671, # of connection points: 5
#     Node 6, Type 0, BuildingBlock: N671, # of connection points: 5
#     Node 7, Type 0, BuildingBlock: N671, # of connection points: 5
#     Node 8, Type 0, BuildingBlock: N671, # of connection points: 5
#     Node 9, Type 0, BuildingBlock: N671, # of connection points: 5
#     Node 10, Type 0, BuildingBlock: N671, # of connection points: 5
#     Node 11, Type 0, BuildingBlock: N671, # of connection points: 5
#     Node 12, Type 0, BuildingBlock: N671, # of connection points: 5
#     Node 13, Type 0, BuildingBlock: N671, # of connection points: 5
#     Node 14, Type 0, BuildingBlock: N671, # of connection points: 5
#     Node 15, Type 0, BuildingBlock: N671, # of connection points: 5
#     Node 16, Type 0, BuildingBlock: N671, # of connection points: 5
#     Node 17, Type 0, BuildingBlock: N671, # of connection points: 5
#     Node 18, Type 0, BuildingBlock: N671, # of connection points: 5
#     Node 19, Type 0, BuildingBlock: N671, # of connection points: 5
#     Node 20, Type 0, BuildingBlock: N671, # of connection points: 5
#     Node 21, Type 0, BuildingBlock: N671, # of connection points: 5
#     Node 22, Type 0, BuildingBlock: N671, # of connection points: 5
#     Node 23, Type 0, BuildingBlock: N671, # of connection points: 5
#     Edge 24, Type (0, 0), BuildingBlock: E201, # of connection points: 2
#     Edge 25, Type (0, 0), BuildingBlock: E201, # of connection points: 2
#     Edge 26, Type (0, 0), BuildingBlock: E201, # of connection points: 2
#     Edge 27, Type (0, 0), BuildingBlock: E201, # of connection points: 2
#     Edge 28, Type (0, 0), BuildingBlock: E201, # of connection points: 2
#     Edge 29, Type (0, 0), BuildingBlock: E201, # of connection points: 2
#     Edge 30, Type (0, 0), BuildingBlock: E201, # of connection points: 2
#     Edge 31, Type (0, 0), BuildingBlock: E201, # of connection points: 2
#     Edge 32, Type (0, 0), BuildingBlock: E201, # of connection points: 2
#     Edge 33, Type (0, 0), BuildingBlock: E201, # of connection points: 2
#     Edge 34, Type (0, 0), BuildingBlock: E201, # of connection points: 2
#     Edge 35, Type (0, 0), BuildingBlock: E201, # of connection points: 2
#     Edge 36, Type (0, 0), BuildingBlock: E201, # of connection points: 2
#     Edge 37, Type (0, 0), BuildingBlock: E201, # of connection points: 2
#     Edge 38, Type (0, 0), BuildingBlock: E201, # of connection points: 2
#     Edge 39, Type (0, 0), BuildingBlock: E201, # of connection points: 2
#     Edge 40, Type (0, 0), BuildingBlock: E201, # of connection points: 2
#     Edge 41, Type (0, 0), BuildingBlock: E201, # of connection points: 2
#     Edge 42, Type (0, 0), BuildingBlock: E201, # of connection points: 2
#     Edge 43, Type (0, 0), BuildingBlock: E201, # of connection points: 2
#     Edge 44, Type (0, 0), BuildingBlock: E201, # of connection points: 2
#     Edge 45, Type (0, 0), BuildingBlock: E201, # of connection points: 2
#     Edge 46, Type (0, 0), BuildingBlock: E201, # of connection points: 2
#     Edge 47, Type (0, 0), BuildingBlock: E201, # of connection points: 2
#     Edge 48, Type (0, 0), BuildingBlock: E201, # of connection points: 2
#     Edge 49, Type (0, 0), BuildingBlock: E201, # of connection points: 2
#     Edge 50, Type (0, 0), BuildingBlock: E201, # of connection points: 2
#     Edge 51, Type (0, 0), BuildingBlock: E201, # of connection points: 2
#     Edge 52, Type (0, 0), BuildingBlock: E201, # of connection points: 2
#     Edge 53, Type (0, 0), BuildingBlock: E201, # of connection points: 2
#     Edge 54, Type (0, 0), BuildingBlock: E201, # of connection points: 2
#     Edge 55, Type (0, 0), BuildingBlock: E201, # of connection points: 2
#     Edge 56, Type (0, 0), BuildingBlock: E201, # of connection points: 2
#     Edge 57, Type (0, 0), BuildingBlock: E201, # of connection points: 2
#     Edge 58, Type (0, 0), BuildingBlock: E201, # of connection points: 2
#     Edge 59, Type (0, 0), BuildingBlock: E201, # of connection points: 2
#     Edge 60, Type (0, 0), BuildingBlock: E201, # of connection points: 2
#     Edge 61, Type (0, 0), BuildingBlock: E201, # of connection points: 2
#     Edge 62, Type (0, 0), BuildingBlock: E201, # of connection points: 2
#     Edge 63, Type (0, 0), BuildingBlock: E201, # of connection points: 2
#     Edge 64, Type (0, 0), BuildingBlock: E201, # of connection points: 2
#     Edge 65, Type (0, 0), BuildingBlock: E201, # of connection points: 2
#     Edge 66, Type (0, 0), BuildingBlock: E201, # of connection points: 2
#     Edge 67, Type (0, 0), BuildingBlock: E201, # of connection points: 2
#     Edge 68, Type (0, 0), BuildingBlock: E201, # of connection points: 2
#     Edge 69, Type (0, 0), BuildingBlock: E201, # of connection points: 2
#     Edge 70, Type (0, 0), BuildingBlock: E201, # of connection points: 2
#     Edge 71, Type (0, 0), BuildingBlock: E201, # of connection points: 2
# Relax obj value: 0.037
# Max RMSD: 0.170
# Mean RMSD: 0.170
data_lta+N671+E201
_symmetry_space_group_name_H-M    P1
_symmetry_Int_Tables_number       1
_symmetry_cell_setting            triclinic
loop_
_symmetry_equiv_pos_as_xyz
'x, y, z'
_cell_length_a     51.340
_cell_length_b     51.340
_cell_length_c     51.340
_cell_angle_alpha  90.000
_cell_angle_beta   90.000
_cell_angle_gamma  90.000
loop_
_atom_site_label
_atom_site_type_symbol
_atom_site_fract_x
_atom_site_fract_y
_atom_site_fract_z
_atom_type_partial_charge
Zn0 Zn 0.88965 0.48320 0.65766 0.00000
Zn1 Zn 0.83992 0.45470 0.68755 0.00000
Zn2 Zn 0.88153 0.49097 0.72146 0.00000
C3 C 0.88238 0.43499 0.72461 0.00000
O4 O 0.91867 0.50243 0.70576 0.00000
O5 O 0.92511 0.47654 0.67190 0.00000
O6 O 0.89236 0.51756 0.64090 0.00000
O7 O 0.85269 0.51240 0.63587 0.00000
C8 C 0.82471 0.48272 0.73543 0.00000
C9 C 0.87210 0.43755 0.63749 0.00000
C10 C 0.93333 0.49118 0.68938 0.00000
O11 O 0.86344 0.43276 0.66027 0.00000
O12 O 0.88417 0.45798 0.63037 0.00000
O13 O 0.86517 0.48671 0.68595 0.00000
O14 O 0.89392 0.45612 0.73102 0.00000
O15 O 0.86100 0.43343 0.71203 0.00000
O16 O 0.81735 0.47105 0.71486 0.00000
O17 O 0.84570 0.49206 0.74006 0.00000
H18 H 0.85307 0.50265 0.64902 0.00000
C19 C 0.87081 0.52961 0.63775 0.00000
Zn20 Zn 0.51680 0.11035 0.34234 0.00000
Zn21 Zn 0.54530 0.16008 0.31245 0.00000
Zn22 Zn 0.50903 0.11847 0.27854 0.00000
C23 C 0.56501 0.11762 0.27539 0.00000
O24 O 0.49757 0.08133 0.29424 0.00000
O25 O 0.52346 0.07489 0.32810 0.00000
O26 O 0.48244 0.10764 0.35910 0.00000
O27 O 0.48760 0.14731 0.36413 0.00000
C28 C 0.51728 0.17529 0.26457 0.00000
C29 C 0.56245 0.12790 0.36251 0.00000
C30 C 0.50882 0.06667 0.31062 0.00000
O31 O 0.56724 0.13656 0.33973 0.00000
O32 O 0.54202 0.11582 0.36963 0.00000
O33 O 0.51329 0.13483 0.31405 0.00000
O34 O 0.54388 0.10608 0.26898 0.00000
O35 O 0.56657 0.13900 0.28797 0.00000
O36 O 0.52895 0.18265 0.28514 0.00000
O37 O 0.50794 0.15430 0.25994 0.00000
H38 H 0.49735 0.14693 0.35098 0.00000
C39 C 0.47039 0.12919 0.36225 0.00000
Zn40 Zn 0.88965 0.51680 0.34234 0.00000
Zn41 Zn 0.83992 0.54530 0.31245 0.00000
Zn42 Zn 0.88153 0.50903 0.27854 0.00000
C43 C 0.88238 0.56501 0.27539 0.00000
O44 O 0.91867 0.49757 0.29424 0.00000
O45 O 0.92511 0.52346 0.32810 0.00000
O46 O 0.89236 0.48244 0.35910 0.00000
O47 O 0.85269 0.48760 0.36413 0.00000
C48 C 0.82471 0.51728 0.26457 0.00000
C49 C 0.87210 0.56245 0.36251 0.00000
C50 C 0.93333 0.50882 0.31062 0.00000
O51 O 0.86344 0.56724 0.33973 0.00000
O52 O 0.88417 0.54202 0.36963 0.00000
O53 O 0.86517 0.51329 0.31405 0.00000
O54 O 0.89392 0.54388 0.26898 0.00000
O55 O 0.86100 0.56657 0.28797 0.00000
O56 O 0.81735 0.52895 0.28514 0.00000
O57 O 0.84570 0.50794 0.25994 0.00000
H58 H 0.85307 0.49735 0.35098 0.00000
C59 C 0.87081 0.47039 0.36225 0.00000
Zn60 Zn 0.48320 0.88965 0.34234 0.00000
Zn61 Zn 0.45470 0.83992 0.31245 0.00000
Zn62 Zn 0.49097 0.88153 0.27854 0.00000
C63 C 0.43499 0.88238 0.27539 0.00000
O64 O 0.50243 0.91867 0.29424 0.00000
O65 O 0.47654 0.92511 0.32810 0.00000
O66 O 0.51756 0.89236 0.35910 0.00000
O67 O 0.51240 0.85269 0.36413 0.00000
C68 C 0.48272 0.82471 0.26457 0.00000
C69 C 0.43755 0.87210 0.36251 0.00000
C70 C 0.49118 0.93333 0.31062 0.00000
O71 O 0.43276 0.86344 0.33973 0.00000
O72 O 0.45798 0.88417 0.36963 0.00000
O73 O 0.48671 0.86517 0.31405 0.00000
O74 O 0.45612 0.89392 0.26898 0.00000
O75 O 0.43343 0.86100 0.28797 0.00000
O76 O 0.47105 0.81735 0.28514 0.00000
O77 O 0.49206 0.84570 0.25994 0.00000
H78 H 0.50265 0.85307 0.35098 0.00000
C79 C 0.52961 0.87081 0.36225 0.00000
Zn80 Zn 0.11035 0.48320 0.34234 0.00000
Zn81 Zn 0.16008 0.45470 0.31245 0.00000
Zn82 Zn 0.11847 0.49097 0.27854 0.00000
C83 C 0.11762 0.43499 0.27539 0.00000
O84 O 0.08133 0.50243 0.29424 0.00000
O85 O 0.07489 0.47654 0.32810 0.00000
O86 O 0.10764 0.51756 0.35910 0.00000
O87 O 0.14731 0.51240 0.36413 0.00000
C88 C 0.17529 0.48272 0.26457 0.00000
C89 C 0.12790 0.43755 0.36251 0.00000
C90 C 0.06667 0.49118 0.31062 0.00000
O91 O 0.13656 0.43276 0.33973 0.00000
O92 O 0.11582 0.45798 0.36963 0.00000
O93 O 0.13483 0.48671 0.31405 0.00000
O94 O 0.10608 0.45612 0.26898 0.00000
O95 O 0.13900 0.43343 0.28797 0.00000
O96 O 0.18265 0.47105 0.28514 0.00000
O97 O 0.15430 0.49206 0.25994 0.00000
H98 H 0.14693 0.50265 0.35098 0.00000
C99 C 0.12919 0.52961 0.36225 0.00000
Zn100 Zn 0.65766 0.51680 0.88965 0.00000
Zn101 Zn 0.68755 0.54530 0.83992 0.00000
Zn102 Zn 0.72146 0.50903 0.88153 0.00000
C103 C 0.72461 0.56501 0.88238 0.00000
O104 O 0.70576 0.49757 0.91867 0.00000
O105 O 0.67190 0.52346 0.92511 0.00000
O106 O 0.64090 0.48244 0.89236 0.00000
O107 O 0.63587 0.48760 0.85269 0.00000
C108 C 0.73543 0.51728 0.82471 0.00000
C109 C 0.63749 0.56245 0.87210 0.00000
C110 C 0.68938 0.50882 0.93333 0.00000
O111 O 0.66027 0.56724 0.86344 0.00000
O112 O 0.63037 0.54202 0.88417 0.00000
O113 O 0.68595 0.51329 0.86517 0.00000
O114 O 0.73102 0.54388 0.89392 0.00000
O115 O 0.71203 0.56657 0.86100 0.00000
O116 O 0.71486 0.52895 0.81735 0.00000
O117 O 0.74006 0.50794 0.84570 0.00000
H118 H 0.64902 0.49735 0.85307 0.00000
C119 C 0.63775 0.47039 0.87081 0.00000
Zn120 Zn 0.65766 0.48320 0.11035 0.00000
Zn121 Zn 0.68755 0.45470 0.16008 0.00000
Zn122 Zn 0.72146 0.49097 0.11847 0.00000
C123 C 0.72461 0.43499 0.11762 0.00000
O124 O 0.70576 0.50243 0.08133 0.00000
O125 O 0.67190 0.47654 0.07489 0.00000
O126 O 0.64090 0.51756 0.10764 0.00000
O127 O 0.63587 0.51240 0.14731 0.00000
C128 C 0.73543 0.48272 0.17529 0.00000
C129 C 0.63749 0.43755 0.12790 0.00000
C130 C 0.68938 0.49118 0.06667 0.00000
O131 O 0.66027 0.43276 0.13656 0.00000
O132 O 0.63037 0.45798 0.11583 0.00000
O133 O 0.68595 0.48671 0.13483 0.00000
O134 O 0.73102 0.45612 0.10608 0.00000
O135 O 0.71203 0.43343 0.13900 0.00000
O136 O 0.71486 0.47105 0.18265 0.00000
O137 O 0.74006 0.49206 0.15430 0.00000
H138 H 0.64902 0.50265 0.14693 0.00000
C139 C 0.63775 0.52961 0.12919 0.00000
Zn140 Zn 0.51680 0.88965 0.65766 0.00000
Zn141 Zn 0.54530 0.83992 0.68755 0.00000
Zn142 Zn 0.50903 0.88153 0.72146 0.00000
C143 C 0.56501 0.88238 0.72461 0.00000
O144 O 0.49757 0.91867 0.70576 0.00000
O145 O 0.52346 0.92511 0.67190 0.00000
O146 O 0.48244 0.89236 0.64090 0.00000
O147 O 0.48760 0.85269 0.63587 0.00000
C148 C 0.51728 0.82471 0.73543 0.00000
C149 C 0.56245 0.87210 0.63749 0.00000
C150 C 0.50882 0.93333 0.68938 0.00000
O151 O 0.56724 0.86344 0.66027 0.00000
O152 O 0.54202 0.88418 0.63037 0.00000
O153 O 0.51329 0.86517 0.68595 0.00000
O154 O 0.54388 0.89392 0.73102 0.00000
O155 O 0.56657 0.86100 0.71203 0.00000
O156 O 0.52895 0.81735 0.71486 0.00000
O157 O 0.50794 0.84570 0.74006 0.00000
H158 H 0.49735 0.85307 0.64902 0.00000
C159 C 0.47039 0.87081 0.63775 0.00000
Zn160 Zn 0.34234 0.88965 0.51680 0.00000
Zn161 Zn 0.31245 0.83992 0.54530 0.00000
Zn162 Zn 0.27854 0.88153 0.50903 0.00000
C163 C 0.27539 0.88238 0.56501 0.00000
O164 O 0.29424 0.91867 0.49757 0.00000
O165 O 0.32810 0.92511 0.52346 0.00000
O166 O 0.35910 0.89236 0.48244 0.00000
O167 O 0.36413 0.85269 0.48760 0.00000
C168 C 0.26457 0.82471 0.51728 0.00000
C169 C 0.36251 0.87210 0.56245 0.00000
C170 C 0.31062 0.93333 0.50882 0.00000
O171 O 0.33973 0.86344 0.56724 0.00000
O172 O 0.36963 0.88417 0.54202 0.00000
O173 O 0.31405 0.86517 0.51329 0.00000
O174 O 0.26898 0.89392 0.54388 0.00000
O175 O 0.28797 0.86100 0.56657 0.00000
O176 O 0.28514 0.81735 0.52895 0.00000
O177 O 0.25994 0.84570 0.50794 0.00000
H178 H 0.35098 0.85307 0.49735 0.00000
C179 C 0.36225 0.87081 0.47039 0.00000
Zn180 Zn 0.11035 0.65766 0.48320 0.00000
Zn181 Zn 0.16008 0.68755 0.45470 0.00000
Zn182 Zn 0.11847 0.72146 0.49097 0.00000
C183 C 0.11762 0.72461 0.43499 0.00000
O184 O 0.08133 0.70576 0.50243 0.00000
O185 O 0.07489 0.67190 0.47654 0.00000
O186 O 0.10764 0.64090 0.51756 0.00000
O187 O 0.14731 0.63587 0.51240 0.00000
C188 C 0.17529 0.73543 0.48272 0.00000
C189 C 0.12790 0.63749 0.43755 0.00000
C190 C 0.06667 0.68938 0.49118 0.00000
O191 O 0.13656 0.66027 0.43276 0.00000
O192 O 0.11583 0.63037 0.45798 0.00000
O193 O 0.13483 0.68595 0.48671 0.00000
O194 O 0.10608 0.73102 0.45612 0.00000
O195 O 0.13900 0.71203 0.43343 0.00000
O196 O 0.18265 0.71486 0.47105 0.00000
O197 O 0.15430 0.74006 0.49206 0.00000
H198 H 0.14693 0.64902 0.50265 0.00000
C199 C 0.12919 0.63775 0.52961 0.00000
Zn200 Zn 0.65766 0.11035 0.51680 0.00000
Zn201 Zn 0.68755 0.16008 0.54530 0.00000
Zn202 Zn 0.72146 0.11847 0.50903 0.00000
C203 C 0.72461 0.11762 0.56501 0.00000
O204 O 0.70576 0.08133 0.49757 0.00000
O205 O 0.67190 0.07489 0.52346 0.00000
O206 O 0.64090 0.10764 0.48244 0.00000
O207 O 0.63587 0.14731 0.48760 0.00000
C208 C 0.73543 0.17529 0.51728 0.00000
C209 C 0.63749 0.12790 0.56245 0.00000
C210 C 0.68938 0.06667 0.50882 0.00000
O211 O 0.66027 0.13656 0.56724 0.00000
O212 O 0.63037 0.11583 0.54202 0.00000
O213 O 0.68595 0.13483 0.51329 0.00000
O214 O 0.73102 0.10608 0.54388 0.00000
O215 O 0.71203 0.13900 0.56657 0.00000
O216 O 0.71486 0.18265 0.52895 0.00000
O217 O 0.74006 0.15430 0.50794 0.00000
H218 H 0.64902 0.14693 0.49735 0.00000
C219 C 0.63775 0.12919 0.47039 0.00000
Zn220 Zn 0.88965 0.65766 0.51680 0.00000
Zn221 Zn 0.83992 0.68755 0.54530 0.00000
Zn222 Zn 0.88153 0.72146 0.50903 0.00000
C223 C 0.88238 0.72461 0.56501 0.00000
O224 O 0.91867 0.70576 0.49757 0.00000
O225 O 0.92511 0.67190 0.52346 0.00000
O226 O 0.89236 0.64090 0.48244 0.00000
O227 O 0.85269 0.63587 0.48760 0.00000
C228 C 0.82471 0.73543 0.51728 0.00000
C229 C 0.87210 0.63749 0.56245 0.00000
C230 C 0.93333 0.68938 0.50882 0.00000
O231 O 0.86344 0.66027 0.56724 0.00000
O232 O 0.88417 0.63037 0.54202 0.00000
O233 O 0.86517 0.68595 0.51329 0.00000
O234 O 0.89392 0.73102 0.54388 0.00000
O235 O 0.86100 0.71203 0.56657 0.00000
O236 O 0.81735 0.71486 0.52895 0.00000
O237 O 0.84570 0.74006 0.50794 0.00000
H238 H 0.85307 0.64902 0.49735 0.00000
C239 C 0.87081 0.63775 0.47039 0.00000
Zn240 Zn 0.11035 0.34234 0.51680 0.00000
Zn241 Zn 0.16008 0.31245 0.54530 0.00000
Zn242 Zn 0.11847 0.27854 0.50903 0.00000
C243 C 0.11762 0.27539 0.56501 0.00000
O244 O 0.08133 0.29424 0.49757 0.00000
O245 O 0.07489 0.32810 0.52346 0.00000
O246 O 0.10764 0.35910 0.48244 0.00000
O247 O 0.14731 0.36413 0.48760 0.00000
C248 C 0.17529 0.26457 0.51728 0.00000
C249 C 0.12790 0.36251 0.56245 0.00000
C250 C 0.06667 0.31062 0.50882 0.00000
O251 O 0.13656 0.33973 0.56724 0.00000
O252 O 0.11583 0.36963 0.54202 0.00000
O253 O 0.13483 0.31405 0.51329 0.00000
O254 O 0.10608 0.26898 0.54388 0.00000
O255 O 0.13900 0.28797 0.56657 0.00000
O256 O 0.18265 0.28514 0.52895 0.00000
O257 O 0.15430 0.25994 0.50794 0.00000
H258 H 0.14693 0.35098 0.49735 0.00000
C259 C 0.12919 0.36225 0.47039 0.00000
Zn260 Zn 0.34234 0.11035 0.48320 0.00000
Zn261 Zn 0.31245 0.16008 0.45470 0.00000
Zn262 Zn 0.27854 0.11847 0.49097 0.00000
C263 C 0.27539 0.11762 0.43499 0.00000
O264 O 0.29424 0.08133 0.50243 0.00000
O265 O 0.32810 0.07489 0.47654 0.00000
O266 O 0.35910 0.10764 0.51756 0.00000
O267 O 0.36413 0.14731 0.51240 0.00000
C268 C 0.26457 0.17529 0.48272 0.00000
C269 C 0.36251 0.12790 0.43755 0.00000
C270 C 0.31062 0.06667 0.49118 0.00000
O271 O 0.33973 0.13656 0.43276 0.00000
O272 O 0.36963 0.11583 0.45798 0.00000
O273 O 0.31405 0.13483 0.48671 0.00000
O274 O 0.26898 0.10608 0.45612 0.00000
O275 O 0.28797 0.13900 0.43343 0.00000
O276 O 0.28514 0.18265 0.47105 0.00000
O277 O 0.25994 0.15430 0.49206 0.00000
H278 H 0.35098 0.14693 0.50265 0.00000
C279 C 0.36225 0.12919 0.52961 0.00000
Zn280 Zn 0.88965 0.34234 0.48320 0.00000
Zn281 Zn 0.83992 0.31245 0.45470 0.00000
Zn282 Zn 0.88153 0.27854 0.49097 0.00000
C283 C 0.88238 0.27539 0.43499 0.00000
O284 O 0.91867 0.29424 0.50243 0.00000
O285 O 0.92511 0.32810 0.47654 0.00000
O286 O 0.89236 0.35910 0.51756 0.00000
O287 O 0.85269 0.36413 0.51240 0.00000
C288 C 0.82471 0.26457 0.48272 0.00000
C289 C 0.87210 0.36251 0.43755 0.00000
C290 C 0.93333 0.31062 0.49118 0.00000
O291 O 0.86344 0.33973 0.43276 0.00000
O292 O 0.88417 0.36963 0.45798 0.00000
O293 O 0.86517 0.31405 0.48671 0.00000
O294 O 0.89392 0.26898 0.45612 0.00000
O295 O 0.86100 0.28797 0.43343 0.00000
O296 O 0.81735 0.28514 0.47105 0.00000
O297 O 0.84570 0.25994 0.49206 0.00000
H298 H 0.85307 0.35098 0.50265 0.00000
C299 C 0.87081 0.36225 0.52961 0.00000
Zn300 Zn 0.48320 0.65766 0.88965 0.00000
Zn301 Zn 0.45470 0.68755 0.83992 0.00000
Zn302 Zn 0.49097 0.72146 0.88153 0.00000
C303 C 0.43499 0.72461 0.88238 0.00000
O304 O 0.50243 0.70576 0.91867 0.00000
O305 O 0.47654 0.67190 0.92511 0.00000
O306 O 0.51756 0.64090 0.89236 0.00000
O307 O 0.51240 0.63587 0.85269 0.00000
C308 C 0.48272 0.73543 0.82471 0.00000
C309 C 0.43755 0.63749 0.87210 0.00000
C310 C 0.49118 0.68938 0.93333 0.00000
O311 O 0.43276 0.66027 0.86344 0.00000
O312 O 0.45798 0.63037 0.88418 0.00000
O313 O 0.48671 0.68595 0.86517 0.00000
O314 O 0.45612 0.73102 0.89392 0.00000
O315 O 0.43343 0.71203 0.86100 0.00000
O316 O 0.47105 0.71486 0.81735 0.00000
O317 O 0.49206 0.74006 0.84570 0.00000
H318 H 0.50265 0.64902 0.85307 0.00000
C319 C 0.52961 0.63775 0.87081 0.00000
Zn320 Zn 0.51680 0.65766 0.11035 0.00000
Zn321 Zn 0.54530 0.68755 0.16008 0.00000
Zn322 Zn 0.50903 0.72146 0.11847 0.00000
C323 C 0.56501 0.72461 0.11762 0.00000
O324 O 0.49757 0.70576 0.08133 0.00000
O325 O 0.52346 0.67190 0.07489 0.00000
O326 O 0.48244 0.64090 0.10764 0.00000
O327 O 0.48760 0.63587 0.14731 0.00000
C328 C 0.51728 0.73543 0.17529 0.00000
C329 C 0.56245 0.63749 0.12790 0.00000
C330 C 0.50882 0.68938 0.06667 0.00000
O331 O 0.56724 0.66027 0.13656 0.00000
O332 O 0.54202 0.63037 0.11583 0.00000
O333 O 0.51329 0.68595 0.13483 0.00000
O334 O 0.54388 0.73102 0.10608 0.00000
O335 O 0.56657 0.71203 0.13900 0.00000
O336 O 0.52895 0.71486 0.18265 0.00000
O337 O 0.50794 0.74006 0.15430 0.00000
H338 H 0.49735 0.64902 0.14693 0.00000
C339 C 0.47039 0.63775 0.12919 0.00000
Zn340 Zn 0.34234 0.51680 0.11035 0.00000
Zn341 Zn 0.31245 0.54530 0.16008 0.00000
Zn342 Zn 0.27854 0.50903 0.11847 0.00000
C343 C 0.27539 0.56501 0.11762 0.00000
O344 O 0.29424 0.49757 0.08133 0.00000
O345 O 0.32810 0.52346 0.07489 0.00000
O346 O 0.35910 0.48244 0.10764 0.00000
O347 O 0.36413 0.48760 0.14731 0.00000
C348 C 0.26457 0.51728 0.17529 0.00000
C349 C 0.36251 0.56245 0.12790 0.00000
C350 C 0.31062 0.50882 0.06667 0.00000
O351 O 0.33973 0.56724 0.13656 0.00000
O352 O 0.36963 0.54202 0.11583 0.00000
O353 O 0.31405 0.51329 0.13483 0.00000
O354 O 0.26898 0.54388 0.10608 0.00000
O355 O 0.28797 0.56657 0.13900 0.00000
O356 O 0.28514 0.52895 0.18265 0.00000
O357 O 0.25994 0.50794 0.15430 0.00000
H358 H 0.35098 0.49735 0.14693 0.00000
C359 C 0.36225 0.47039 0.12919 0.00000
Zn360 Zn 0.48320 0.34234 0.11035 0.00000
Zn361 Zn 0.45470 0.31245 0.16008 0.00000
Zn362 Zn 0.49097 0.27854 0.11847 0.00000
C363 C 0.43499 0.27539 0.11762 0.00000
O364 O 0.50243 0.29424 0.08133 0.00000
O365 O 0.47654 0.32810 0.07489 0.00000
O366 O 0.51756 0.35910 0.10764 0.00000
O367 O 0.51240 0.36413 0.14731 0.00000
C368 C 0.48272 0.26457 0.17529 0.00000
C369 C 0.43755 0.36251 0.12790 0.00000
C370 C 0.49118 0.31062 0.06667 0.00000
O371 O 0.43276 0.33973 0.13656 0.00000
O372 O 0.45798 0.36963 0.11583 0.00000
O373 O 0.48671 0.31405 0.13483 0.00000
O374 O 0.45612 0.26898 0.10608 0.00000
O375 O 0.43343 0.28797 0.13900 0.00000
O376 O 0.47105 0.28514 0.18265 0.00000
O377 O 0.49206 0.25994 0.15430 0.00000
H378 H 0.50265 0.35098 0.14693 0.00000
C379 C 0.52961 0.36225 0.12919 0.00000
Zn380 Zn 0.34234 0.48320 0.88965 0.00000
Zn381 Zn 0.31245 0.45470 0.83992 0.00000
Zn382 Zn 0.27854 0.49097 0.88153 0.00000
C383 C 0.27539 0.43499 0.88238 0.00000
O384 O 0.29424 0.50243 0.91867 0.00000
O385 O 0.32810 0.47654 0.92511 0.00000
O386 O 0.35910 0.51756 0.89236 0.00000
O387 O 0.36413 0.51240 0.85269 0.00000
C388 C 0.26457 0.48272 0.82471 0.00000
C389 C 0.36251 0.43755 0.87210 0.00000
C390 C 0.31062 0.49118 0.93333 0.00000
O391 O 0.33973 0.43276 0.86344 0.00000
O392 O 0.36963 0.45798 0.88417 0.00000
O393 O 0.31405 0.48671 0.86517 0.00000
O394 O 0.26898 0.45612 0.89392 0.00000
O395 O 0.28797 0.43343 0.86100 0.00000
O396 O 0.28514 0.47105 0.81735 0.00000
O397 O 0.25994 0.49206 0.84570 0.00000
H398 H 0.35098 0.50265 0.85307 0.00000
C399 C 0.36225 0.52961 0.87081 0.00000
Zn400 Zn 0.51680 0.34234 0.88965 0.00000
Zn401 Zn 0.54530 0.31245 0.83992 0.00000
Zn402 Zn 0.50903 0.27854 0.88153 0.00000
C403 C 0.56501 0.27539 0.88238 0.00000
O404 O 0.49757 0.29424 0.91867 0.00000
O405 O 0.52346 0.32810 0.92511 0.00000
O406 O 0.48244 0.35910 0.89236 0.00000
O407 O 0.48760 0.36413 0.85269 0.00000
C408 C 0.51728 0.26457 0.82471 0.00000
C409 C 0.56245 0.36251 0.87210 0.00000
C410 C 0.50882 0.31062 0.93333 0.00000
O411 O 0.56724 0.33973 0.86344 0.00000
O412 O 0.54202 0.36963 0.88417 0.00000
O413 O 0.51329 0.31405 0.86517 0.00000
O414 O 0.54388 0.26898 0.89392 0.00000
O415 O 0.56657 0.28797 0.86100 0.00000
O416 O 0.52895 0.28514 0.81735 0.00000
O417 O 0.50794 0.25994 0.84570 0.00000
H418 H 0.49735 0.35098 0.85307 0.00000
C419 C 0.47039 0.36225 0.87081 0.00000
Zn420 Zn 0.65766 0.88965 0.48320 0.00000
Zn421 Zn 0.68755 0.83992 0.45470 0.00000
Zn422 Zn 0.72146 0.88153 0.49097 0.00000
C423 C 0.72461 0.88238 0.43499 0.00000
O424 O 0.70576 0.91867 0.50243 0.00000
O425 O 0.67190 0.92511 0.47654 0.00000
O426 O 0.64090 0.89236 0.51756 0.00000
O427 O 0.63587 0.85269 0.51240 0.00000
C428 C 0.73543 0.82471 0.48272 0.00000
C429 C 0.63749 0.87210 0.43755 0.00000
C430 C 0.68938 0.93333 0.49118 0.00000
O431 O 0.66027 0.86344 0.43276 0.00000
O432 O 0.63037 0.88417 0.45798 0.00000
O433 O 0.68595 0.86517 0.48671 0.00000
O434 O 0.73102 0.89392 0.45612 0.00000
O435 O 0.71203 0.86100 0.43343 0.00000
O436 O 0.71486 0.81735 0.47105 0.00000
O437 O 0.74006 0.84570 0.49206 0.00000
H438 H 0.64902 0.85307 0.50265 0.00000
C439 C 0.63775 0.87081 0.52961 0.00000
Zn440 Zn 0.11035 0.51680 0.65766 0.00000
Zn441 Zn 0.16008 0.54530 0.68755 0.00000
Zn442 Zn 0.11847 0.50903 0.72146 0.00000
C443 C 0.11762 0.56501 0.72461 0.00000
O444 O 0.08133 0.49757 0.70576 0.00000
O445 O 0.07489 0.52346 0.67190 0.00000
O446 O 0.10764 0.48244 0.64090 0.00000
O447 O 0.14731 0.48760 0.63587 0.00000
C448 C 0.17529 0.51728 0.73543 0.00000
C449 C 0.12790 0.56245 0.63749 0.00000
C450 C 0.06667 0.50882 0.68938 0.00000
O451 O 0.13656 0.56724 0.66027 0.00000
O452 O 0.11583 0.54202 0.63037 0.00000
O453 O 0.13483 0.51329 0.68595 0.00000
O454 O 0.10608 0.54388 0.73102 0.00000
O455 O 0.13900 0.56657 0.71203 0.00000
O456 O 0.18265 0.52895 0.71486 0.00000
O457 O 0.15430 0.50794 0.74006 0.00000
H458 H 0.14693 0.49735 0.64902 0.00000
C459 C 0.12919 0.47039 0.63775 0.00000
Zn460 Zn 0.48320 0.11035 0.65766 0.00000
Zn461 Zn 0.45470 0.16008 0.68755 0.00000
Zn462 Zn 0.49097 0.11847 0.72146 0.00000
C463 C 0.43499 0.11762 0.72461 0.00000
O464 O 0.50243 0.08133 0.70576 0.00000
O465 O 0.47654 0.07489 0.67190 0.00000
O466 O 0.51756 0.10764 0.64090 0.00000
O467 O 0.51240 0.14731 0.63587 0.00000
C468 C 0.48272 0.17529 0.73543 0.00000
C469 C 0.43755 0.12790 0.63749 0.00000
C470 C 0.49118 0.06667 0.68938 0.00000
O471 O 0.43276 0.13656 0.66027 0.00000
O472 O 0.45798 0.11583 0.63037 0.00000
O473 O 0.48671 0.13483 0.68595 0.00000
O474 O 0.45612 0.10608 0.73102 0.00000
O475 O 0.43343 0.13900 0.71203 0.00000
O476 O 0.47105 0.18265 0.71486 0.00000
O477 O 0.49206 0.15430 0.74006 0.00000
H478 H 0.50265 0.14693 0.64902 0.00000
C479 C 0.52961 0.12919 0.63775 0.00000
H480 H 0.89129 0.38473 0.53638 0.00000
C481 C 0.85366 0.39307 0.58414 0.00000
H482 H 0.91431 0.39886 0.57263 0.00000
C483 C 0.89704 0.41535 0.60461 0.00000
H484 H 0.83703 0.40982 0.61532 0.00000
H485 H 0.83887 0.38439 0.57835 0.00000
H486 H 0.91236 0.42179 0.61183 0.00000
C487 C 0.87616 0.39148 0.57069 0.00000
C488 C 0.89843 0.40134 0.58097 0.00000
N489 N 0.87891 0.37891 0.54606 0.00000
C490 C 0.87436 0.41978 0.61708 0.00000
C491 C 0.85288 0.40790 0.60681 0.00000
H492 H 0.55941 0.11625 0.38751 0.00000
C493 C 0.61801 0.12579 0.40306 0.00000
H494 H 0.56263 0.12902 0.43076 0.00000
C495 C 0.59676 0.12832 0.45143 0.00000
H496 H 0.65121 0.12460 0.42370 0.00000
H497 H 0.62578 0.12645 0.38673 0.00000
H498 H 0.58908 0.13038 0.46770 0.00000
C499 C 0.59185 0.12524 0.40536 0.00000
C500 C 0.58062 0.12770 0.42916 0.00000
N501 N 0.57422 0.12324 0.38397 0.00000
C502 C 0.62288 0.12600 0.45000 0.00000
C503 C 0.63322 0.12537 0.42549 0.00000
H504 H 0.89774 0.62177 0.45833 0.00000
C505 C 0.85429 0.59990 0.42091 0.00000
H506 H 0.91395 0.61616 0.41650 0.00000
C507 C 0.89578 0.59414 0.38863 0.00000
H508 H 0.83699 0.57786 0.39362 0.00000
H509 H 0.83945 0.60285 0.43085 0.00000
H510 H 0.90994 0.59344 0.37735 0.00000
C511 C 0.87752 0.60957 0.42843 0.00000
C512 C 0.89833 0.60809 0.41220 0.00000
N513 N 0.88205 0.62267 0.45251 0.00000
C514 C 0.87363 0.58176 0.38187 0.00000
C515 C 0.85282 0.58541 0.39805 0.00000
H516 H 0.35583 0.85838 0.44562 0.00000
C517 C 0.39692 0.89232 0.41518 0.00000
H518 H 0.38709 0.83211 0.42622 0.00000
C519 C 0.41164 0.84473 0.39741 0.00000
H520 H 0.42067 0.90429 0.38651 0.00000
H521 H 0.39336 0.90875 0.42187 0.00000
H522 H 0.41727 0.82824 0.39246 0.00000
C523 C 0.38569 0.87098 0.42557 0.00000
C524 C 0.39351 0.84690 0.41798 0.00000
N525 N 0.36622 0.87152 0.44541 0.00000
C526 C 0.42108 0.86565 0.38465 0.00000
C527 C 0.41392 0.88941 0.39427 0.00000
H528 H 0.14723 0.36555 0.45317 0.00000
C529 C 0.11096 0.38819 0.40915 0.00000
H530 H 0.16209 0.40596 0.43938 0.00000
C531 C 0.15033 0.42332 0.40543 0.00000
H532 H 0.10006 0.40512 0.37562 0.00000
H533 H 0.09652 0.37741 0.41078 0.00000
H534 H 0.16335 0.43591 0.40522 0.00000
C535 C 0.13031 0.38733 0.42688 0.00000
C536 C 0.14962 0.40538 0.42628 0.00000
N537 N 0.13177 0.36896 0.44769 0.00000
C538 C 0.13290 0.42285 0.38580 0.00000
C539 C 0.11291 0.40546 0.38835 0.00000
H540 H 0.54133 0.62133 0.89747 0.00000
C541 C 0.57937 0.60029 0.85415 0.00000
H542 H 0.58289 0.61530 0.91420 0.00000
C543 C 0.61101 0.59360 0.89600 0.00000
H544 H 0.60688 0.57857 0.83680 0.00000
H545 H 0.56966 0.60358 0.83923 0.00000
H546 H 0.62207 0.59259 0.91031 0.00000
C547 C 0.57152 0.60950 0.87746 0.00000
C548 C 0.58742 0.60755 0.89848 0.00000
N549 N 0.54738 0.62255 0.88189 0.00000
C550 C 0.61808 0.58168 0.87370 0.00000
C551 C 0.60222 0.58580 0.85272 0.00000
H552 H 0.55783 0.35517 0.10852 0.00000
C553 C 0.57213 0.41208 0.12652 0.00000
H554 H 0.59973 0.35657 0.12543 0.00000
C555 C 0.62019 0.39041 0.13077 0.00000
H556 H 0.59261 0.44506 0.13126 0.00000
H557 H 0.55577 0.41980 0.12665 0.00000
H558 H 0.63626 0.38244 0.13333 0.00000
C559 C 0.57462 0.38617 0.12298 0.00000
C560 C 0.59816 0.37459 0.12619 0.00000
N561 N 0.55359 0.36904 0.11692 0.00000
C562 C 0.61884 0.41663 0.13155 0.00000
C563 C 0.59442 0.42710 0.12999 0.00000
H564 H 0.62257 0.84576 0.42198 0.00000
C565 C 0.57786 0.88598 0.40976 0.00000
H566 H 0.60895 0.84201 0.37903 0.00000
C567 C 0.57475 0.85739 0.36537 0.00000
H568 H 0.54410 0.90042 0.39629 0.00000
H569 H 0.57926 0.89704 0.42402 0.00000
H570 H 0.57474 0.84821 0.34975 0.00000
C571 C 0.59593 0.86742 0.40546 0.00000
C572 C 0.59563 0.85365 0.38290 0.00000
N573 N 0.61680 0.86147 0.42281 0.00000
C574 C 0.55482 0.87371 0.37044 0.00000
C575 C 0.55705 0.88836 0.39255 0.00000
H576 H 0.12929 0.60887 0.44396 0.00000
C577 C 0.11517 0.59510 0.38584 0.00000
H578 H 0.15217 0.57242 0.43012 0.00000
C579 C 0.14246 0.55136 0.39764 0.00000
H580 H 0.10547 0.57395 0.35441 0.00000
H581 H 0.10693 0.61036 0.38065 0.00000
H582 H 0.15289 0.53707 0.40155 0.00000
C583 C 0.12749 0.59382 0.40900 0.00000
C584 C 0.14229 0.57274 0.41495 0.00000
N585 N 0.12713 0.61397 0.42814 0.00000
C586 C 0.12805 0.55085 0.37569 0.00000
C587 C 0.11496 0.57326 0.36980 0.00000
H588 H 0.46756 0.86994 0.61249 0.00000
C589 C 0.40672 0.86423 0.61822 0.00000
H590 H 0.44627 0.89010 0.57808 0.00000
C591 C 0.40799 0.88347 0.56897 0.00000
H592 H 0.36941 0.85742 0.60872 0.00000
H593 H 0.40543 0.85894 0.63548 0.00000
H594 H 0.40864 0.89123 0.55262 0.00000
C595 C 0.42974 0.87220 0.60841 0.00000
C596 C 0.43081 0.88304 0.58433 0.00000
N597 N 0.45390 0.87113 0.62212 0.00000
C598 C 0.38530 0.87303 0.57710 0.00000
C599 C 0.38491 0.86401 0.60214 0.00000
H600 H 0.14421 0.56011 0.61048 0.00000
C601 C 0.10837 0.60515 0.58917 0.00000
H602 H 0.16792 0.58855 0.58454 0.00000
C603 C 0.15113 0.61477 0.55958 0.00000
H604 H 0.09215 0.63049 0.56419 0.00000
H605 H 0.09391 0.60334 0.59991 0.00000
H606 H 0.16632 0.61861 0.55049 0.00000
C607 C 0.13028 0.59147 0.59391 0.00000
C608 C 0.15232 0.59668 0.58028 0.00000
N609 N 0.13269 0.57190 0.61350 0.00000
C610 C 0.12882 0.62664 0.55247 0.00000
C611 C 0.10768 0.62202 0.56798 0.00000
H612 H 0.38260 0.13994 0.53511 0.00000
C613 C 0.38052 0.12671 0.59500 0.00000
H614 H 0.42375 0.12947 0.55064 0.00000
C615 C 0.43308 0.12867 0.58943 0.00000
H616 H 0.39006 0.12647 0.63293 0.00000
H617 H 0.36271 0.12451 0.59737 0.00000
H618 H 0.45102 0.12817 0.58698 0.00000
C619 C 0.39052 0.12946 0.57088 0.00000
C620 C 0.41672 0.12927 0.56733 0.00000
N621 N 0.37534 0.13161 0.54770 0.00000
C622 C 0.42369 0.12883 0.61396 0.00000
C623 C 0.39723 0.12722 0.61634 0.00000
H624 H 0.36969 0.14919 0.41194 0.00000
C625 C 0.42565 0.12403 0.41336 0.00000
H626 H 0.38293 0.13720 0.37040 0.00000
C627 C 0.42078 0.12887 0.36091 0.00000
H628 H 0.46277 0.11643 0.40368 0.00000
H629 H 0.42746 0.12078 0.43107 0.00000
H630 H 0.41834 0.12949 0.34298 0.00000
C631 C 0.40262 0.13195 0.40354 0.00000
C632 C 0.39920 0.13338 0.37736 0.00000
N633 N 0.38031 0.13823 0.41887 0.00000
C634 C 0.44479 0.12374 0.37022 0.00000
C635 C 0.44670 0.12077 0.39660 0.00000
H636 H 0.63922 0.89694 0.55425 0.00000
C637 C 0.58908 0.86652 0.57235 0.00000
H638 H 0.64032 0.88930 0.59880 0.00000
C639 C 0.60829 0.87867 0.62010 0.00000
H640 H 0.55771 0.85670 0.59353 0.00000
H641 H 0.58265 0.86080 0.55642 0.00000
H642 H 0.61573 0.88189 0.63630 0.00000
C643 C 0.61272 0.87786 0.57389 0.00000
C644 C 0.62337 0.88305 0.59751 0.00000
N645 N 0.62858 0.88419 0.55197 0.00000
C646 C 0.58350 0.87006 0.61907 0.00000
C647 C 0.57442 0.86348 0.59494 0.00000
H648 H 0.40942 0.63242 0.85397 0.00000
C649 C 0.41342 0.57397 0.87226 0.00000
H650 H 0.36992 0.61813 0.87070 0.00000
C651 C 0.36097 0.57963 0.87616 0.00000
H652 H 0.40418 0.53628 0.87711 0.00000
H653 H 0.43137 0.57172 0.87251 0.00000
H654 H 0.34321 0.58222 0.87859 0.00000
C655 C 0.40302 0.59780 0.86855 0.00000
C656 C 0.37702 0.60150 0.87157 0.00000
N657 N 0.41771 0.62060 0.86247 0.00000
C658 C 0.37041 0.55514 0.87710 0.00000
C659 C 0.39689 0.55277 0.87571 0.00000
H660 H 0.62141 0.53767 0.14385 0.00000
C661 C 0.61865 0.59485 0.12173 0.00000
H662 H 0.57847 0.55131 0.14001 0.00000
C663 C 0.56785 0.58950 0.13543 0.00000
H664 H 0.60796 0.63227 0.11785 0.00000
H665 H 0.63553 0.59690 0.11553 0.00000
H666 H 0.55029 0.58695 0.13905 0.00000
C667 C 0.61027 0.57140 0.13006 0.00000
C668 C 0.58474 0.56779 0.13587 0.00000
N669 N 0.62636 0.54886 0.13241 0.00000
C670 C 0.57622 0.61379 0.12998 0.00000
C671 C 0.60168 0.61597 0.12255 0.00000
H672 H 0.46593 0.61565 0.13746 0.00000
C673 C 0.40522 0.61949 0.12934 0.00000
H674 H 0.44905 0.57598 0.12385 0.00000
C675 C 0.41019 0.56700 0.12513 0.00000
H676 H 0.36727 0.61024 0.13107 0.00000
H677 H 0.40294 0.63745 0.12927 0.00000
H678 H 0.41234 0.54921 0.12250 0.00000
C679 C 0.42935 0.60912 0.12906 0.00000
C680 C 0.43250 0.58308 0.12575 0.00000
N681 N 0.45283 0.62385 0.13100 0.00000
C682 C 0.38589 0.57645 0.12826 0.00000
C683 C 0.38376 0.60294 0.12973 0.00000
H684 H 0.38404 0.46575 0.13796 0.00000
C685 C 0.38049 0.40516 0.12883 0.00000
H686 H 0.42402 0.44914 0.12493 0.00000
C687 C 0.43304 0.41028 0.12581 0.00000
H688 H 0.38978 0.36720 0.13019 0.00000
H689 H 0.36254 0.40286 0.12836 0.00000
H690 H 0.45088 0.41251 0.12358 0.00000
C691 C 0.39082 0.42931 0.12914 0.00000
C692 C 0.41691 0.43256 0.12642 0.00000
N693 N 0.37600 0.45273 0.13112 0.00000
C694 C 0.42358 0.38592 0.12837 0.00000
C695 C 0.39707 0.38373 0.12924 0.00000
H696 H 0.38895 0.44216 0.88047 0.00000
C697 C 0.40317 0.38254 0.87737 0.00000
H698 H 0.43074 0.43649 0.86417 0.00000
C699 C 0.45119 0.40238 0.86744 0.00000
H700 H 0.42365 0.34942 0.88099 0.00000
H701 H 0.38682 0.37505 0.87931 0.00000
H702 H 0.46722 0.40943 0.86284 0.00000
C703 C 0.40566 0.40849 0.87421 0.00000
C704 C 0.42917 0.41886 0.86802 0.00000
N705 N 0.38466 0.42662 0.87588 0.00000
C706 C 0.44985 0.37682 0.87334 0.00000
C707 C 0.42545 0.36711 0.87767 0.00000
H708 H 0.59420 0.36409 0.86360 0.00000
C709 C 0.58876 0.42522 0.86365 0.00000
H710 H 0.62621 0.38300 0.88933 0.00000
C711 C 0.63575 0.42171 0.88767 0.00000
H712 H 0.59872 0.46299 0.86176 0.00000
H713 H 0.57214 0.42715 0.85677 0.00000
H714 H 0.65122 0.42017 0.89697 0.00000
C715 C 0.59781 0.40145 0.87018 0.00000
C716 C 0.62065 0.39914 0.88329 0.00000
N717 N 0.58443 0.37761 0.86519 0.00000
C718 C 0.62863 0.44539 0.87884 0.00000
C719 C 0.60466 0.44685 0.86737 0.00000
H720 H 0.84996 0.37041 0.41282 0.00000
C721 C 0.87712 0.42545 0.41322 0.00000
H722 H 0.86039 0.38343 0.37080 0.00000
C723 C 0.86957 0.42102 0.36105 0.00000
H724 H 0.88554 0.46233 0.40331 0.00000
H725 H 0.88128 0.42705 0.43076 0.00000
H726 H 0.86800 0.41870 0.34316 0.00000
C727 C 0.86792 0.40276 0.40371 0.00000
C728 C 0.86511 0.39952 0.37763 0.00000
N729 N 0.86160 0.38060 0.41926 0.00000
C730 C 0.87599 0.44479 0.37018 0.00000
C731 C 0.88029 0.44646 0.39640 0.00000
H732 H 0.15312 0.37420 0.58234 0.00000
C733 C 0.11765 0.42393 0.58823 0.00000
H734 H 0.15055 0.38701 0.62562 0.00000
C735 C 0.13759 0.42293 0.63720 0.00000
H736 H 0.10557 0.45928 0.59978 0.00000
H737 H 0.10936 0.42411 0.57214 0.00000
H738 H 0.14360 0.42163 0.65424 0.00000
C739 C 0.13250 0.40348 0.59535 0.00000
C740 C 0.14173 0.40181 0.62006 0.00000
N741 N 0.13876 0.38206 0.57878 0.00000
C742 C 0.12530 0.44492 0.62980 0.00000
C743 C 0.11489 0.44479 0.60530 0.00000
H744 H 0.63053 0.14891 0.58833 0.00000
C745 C 0.57429 0.12438 0.58661 0.00000
H746 H 0.61722 0.13645 0.62970 0.00000
C747 C 0.57928 0.12839 0.63912 0.00000
H748 H 0.53710 0.11704 0.59623 0.00000
H749 H 0.57243 0.12142 0.56886 0.00000
H750 H 0.58176 0.12871 0.65706 0.00000
C751 C 0.59742 0.13191 0.59652 0.00000
C752 C 0.60090 0.13291 0.62270 0.00000
N753 N 0.61978 0.13818 0.58125 0.00000
C754 C 0.55520 0.12366 0.62977 0.00000
C755 C 0.55323 0.12111 0.60335 0.00000
H756 H 0.86171 0.55642 0.64658 0.00000
C757 C 0.89200 0.58260 0.60006 0.00000
H758 H 0.83321 0.57853 0.61932 0.00000
C759 C 0.84498 0.60559 0.59246 0.00000
H760 H 0.90324 0.60960 0.57410 0.00000
H761 H 0.90794 0.57410 0.60119 0.00000
H762 H 0.82847 0.61235 0.58933 0.00000
C763 C 0.87165 0.57476 0.61469 0.00000
C764 C 0.84764 0.58500 0.61050 0.00000
N765 N 0.87301 0.55509 0.63428 0.00000
C766 C 0.86546 0.61584 0.57962 0.00000
C767 C 0.88882 0.60361 0.58324 0.00000
H768 H 0.04510 0.51699 0.66916 0.00000
C769 C 0.00419 0.48295 0.69973 0.00000
H770 H 0.00502 0.53784 0.67090 0.00000
C771 C 0.97098 0.51933 0.68045 0.00000
H772 H 0.97061 0.46490 0.70845 0.00000
H773 H 0.01510 0.47098 0.70780 0.00000
H774 H 0.96004 0.53259 0.67476 0.00000
C775 C 0.01419 0.50363 0.68699 0.00000
C776 C 0.99819 0.52274 0.67821 0.00000
N777 N 0.04132 0.50782 0.68267 0.00000
C778 C 0.96027 0.49755 0.69049 0.00000
C779 C 0.97728 0.47978 0.70063 0.00000
H780 H 0.47310 0.95664 0.32308 0.00000
C781 C 0.51893 0.99549 0.31052 0.00000
H782 H 0.45700 0.99589 0.30744 0.00000
C783 C 0.47862 0.02938 0.30562 0.00000
H784 H 0.53972 0.02858 0.30922 0.00000
H785 H 0.53307 0.98419 0.31065 0.00000
H786 H 0.46457 0.04046 0.30279 0.00000
C787 C 0.49441 0.98616 0.31183 0.00000
C788 C 0.47387 0.00241 0.30823 0.00000
N789 N 0.48795 0.95942 0.31582 0.00000
C790 C 0.50273 0.03968 0.30712 0.00000
C791 C 0.52277 0.02227 0.30896 0.00000
H792 H 0.04254 0.46843 0.30925 0.00000
C793 C 0.00371 0.51433 0.32157 0.00000
H794 H 0.00562 0.46557 0.28332 0.00000
C795 C 0.97180 0.48534 0.29093 0.00000
H796 H 0.97026 0.53312 0.32917 0.00000
H797 H 0.01447 0.52544 0.33097 0.00000
H798 H 0.96152 0.47586 0.27941 0.00000
C799 C 0.01364 0.49326 0.30944 0.00000
C800 C 0.99851 0.47909 0.29304 0.00000
N801 N 0.04003 0.48482 0.31165 0.00000
C802 C 0.96063 0.50449 0.30500 0.00000
C803 C 0.97711 0.51923 0.31982 0.00000
H804 H 0.71263 0.50187 0.04840 0.00000
C805 C 0.68363 0.48209 0.99806 0.00000
H806 H 0.70931 0.53496 0.01778 0.00000
C807 C 0.70049 0.52861 0.97939 0.00000
H808 H 0.67562 0.47605 0.96026 0.00000
H809 H 0.67636 0.46668 0.00417 0.00000
H810 H 0.70531 0.54511 0.97366 0.00000
C811 C 0.69528 0.49882 0.01461 0.00000
C812 C 0.70281 0.52270 0.00615 0.00000
N813 N 0.69963 0.49378 0.04160 0.00000
C814 C 0.69160 0.51125 0.96181 0.00000
C815 C 0.68265 0.48820 0.97167 0.00000
H816 H 0.50879 0.04962 0.70753 0.00000
C817 C 0.48060 0.99780 0.69060 0.00000
H818 H 0.53892 0.01847 0.69463 0.00000
C819 C 0.53029 0.97968 0.69102 0.00000
H820 H 0.47255 0.95965 0.68759 0.00000
H821 H 0.46355 0.00362 0.68888 0.00000
H822 H 0.54749 0.97408 0.69004 0.00000
C823 C 0.50018 0.01485 0.69452 0.00000
C824 C 0.52528 0.00661 0.69362 0.00000
N825 N 0.49670 0.04211 0.69868 0.00000
C826 C 0.51110 0.96179 0.68996 0.00000
C827 C 0.48627 0.97133 0.68915 0.00000
H828 H 0.29359 0.95021 0.49023 0.00000
C829 C 0.30817 0.00220 0.51939 0.00000
H830 H 0.30800 0.98150 0.46095 0.00000
C831 C 0.31064 0.02033 0.46977 0.00000
H832 H 0.31025 0.04038 0.52760 0.00000
H833 H 0.30889 0.99639 0.53652 0.00000
H834 H 0.31263 0.02595 0.45267 0.00000
C835 C 0.30566 0.98511 0.49961 0.00000
C836 C 0.30803 0.99338 0.47462 0.00000
N837 N 0.30159 0.95781 0.50284 0.00000
C838 C 0.31031 0.03823 0.48898 0.00000
C839 C 0.30968 0.02868 0.51382 0.00000
H840 H 0.95077 0.70959 0.49340 0.00000
C841 C 0.00216 0.68812 0.51917 0.00000
H842 H 0.98166 0.69988 0.46185 0.00000
C843 C 0.02035 0.69437 0.46990 0.00000
H844 H 0.04023 0.68330 0.52673 0.00000
H845 H 0.99628 0.68441 0.53588 0.00000
H846 H 0.02596 0.69543 0.45271 0.00000
C847 C 0.98522 0.69484 0.50026 0.00000
C848 C 0.99349 0.69691 0.47523 0.00000
N849 N 0.95806 0.69913 0.50427 0.00000
C850 C 0.03819 0.69052 0.48878 0.00000
C851 C 0.02860 0.68682 0.51333 0.00000
H852 H 0.71086 0.04435 0.52128 0.00000
C853 C 0.67186 0.00010 0.50281 0.00000
H854 H 0.73270 0.01190 0.49860 0.00000
C855 C 0.71712 0.97591 0.49122 0.00000
H856 H 0.65704 0.96516 0.49600 0.00000
H857 H 0.65600 0.00910 0.50520 0.00000
H858 H 0.73271 0.96817 0.48621 0.00000
C859 C 0.69443 0.01389 0.50533 0.00000
C860 C 0.71726 0.00243 0.49852 0.00000
N861 N 0.69638 0.04025 0.51391 0.00000
C862 C 0.69525 0.96137 0.49129 0.00000
C863 C 0.67262 0.97434 0.49657 0.00000
H864 H 0.95028 0.29309 0.50935 0.00000
C865 C 0.00221 0.30871 0.48060 0.00000
H866 H 0.98151 0.30686 0.53901 0.00000
C867 C 0.02032 0.30992 0.53027 0.00000
H868 H 0.04037 0.31119 0.47245 0.00000
H869 H 0.99639 0.30986 0.46350 0.00000
H870 H 0.02593 0.31147 0.54742 0.00000
C871 C 0.98513 0.30558 0.50030 0.00000
C872 C 0.99338 0.30731 0.52535 0.00000
N873 N 0.95784 0.30146 0.49696 0.00000
C874 C 0.03822 0.31019 0.51106 0.00000
C875 C 0.02868 0.31019 0.48621 0.00000
H876 H 0.49148 0.70782 0.04957 0.00000
C877 C 0.51938 0.69027 0.99780 0.00000
H878 H 0.46115 0.69533 0.01846 0.00000
C879 C 0.46971 0.69147 0.97968 0.00000
H880 H 0.52738 0.68702 0.95966 0.00000
H881 H 0.53640 0.68829 0.00363 0.00000
H882 H 0.45250 0.69075 0.97408 0.00000
C883 C 0.49987 0.69456 0.01484 0.00000
C884 C 0.47476 0.69406 0.00660 0.00000
N885 N 0.50342 0.69875 0.04209 0.00000
C886 C 0.48888 0.69003 0.96179 0.00000
C887 C 0.51369 0.68884 0.97134 0.00000
H888 H 0.28562 0.51317 0.04577 0.00000
C889 C 0.32579 0.50966 0.99990 0.00000
H890 H 0.27152 0.48370 0.01451 0.00000
C891 C 0.28639 0.48208 0.97751 0.00000
H892 H 0.33977 0.50830 0.96300 0.00000
H893 H 0.34018 0.51777 0.00689 0.00000
H894 H 0.27324 0.47163 0.97073 0.00000
C895 C 0.30475 0.50394 0.01413 0.00000
C896 C 0.28529 0.48914 0.00408 0.00000
N897 N 0.30150 0.51154 0.04067 0.00000
C898 C 0.30575 0.48994 0.96160 0.00000
C899 C 0.32568 0.50326 0.97317 0.00000
H900 H 0.48611 0.33187 0.04564 0.00000
C901 C 0.51571 0.29792 0.00395 0.00000
H902 H 0.46529 0.33396 0.00557 0.00000
C903 C 0.48237 0.32279 0.97128 0.00000
H904 H 0.53246 0.28761 0.97015 0.00000
H905 H 0.52644 0.28802 0.01464 0.00000
H906 H 0.47003 0.33050 0.96050 0.00000
C907 C 0.49696 0.31312 0.01429 0.00000
C908 C 0.47925 0.32483 0.99854 0.00000
N909 N 0.49335 0.31733 0.04152 0.00000
C910 C 0.50258 0.31012 0.96029 0.00000
C911 C 0.51877 0.29724 0.97703 0.00000
H912 H 0.74333 0.53185 0.80196 0.00000
C913 C 0.78881 0.49160 0.79314 0.00000
H914 H 0.74848 0.52288 0.75795 0.00000
C915 C 0.78096 0.50543 0.74270 0.00000
H916 H 0.82080 0.47507 0.77788 0.00000
H917 H 0.79112 0.48536 0.80997 0.00000
H918 H 0.77722 0.50941 0.72543 0.00000
C919 C 0.76852 0.50725 0.78739 0.00000
C920 C 0.76336 0.51351 0.76224 0.00000
N921 N 0.75067 0.51738 0.80613 0.00000
C922 C 0.80299 0.49221 0.74813 0.00000
C923 C 0.80626 0.48491 0.77352 0.00000
H924 H 0.51802 0.17401 0.23696 0.00000
C925 C 0.48353 0.22445 0.23131 0.00000
H926 H 0.53714 0.20337 0.20839 0.00000
C927 C 0.51756 0.23403 0.19197 0.00000
H928 H 0.46439 0.25420 0.21462 0.00000
H929 H 0.47240 0.22255 0.24545 0.00000
H930 H 0.53008 0.23766 0.17940 0.00000
C931 C 0.50407 0.20838 0.22825 0.00000
C932 C 0.52208 0.21335 0.20956 0.00000
N933 N 0.50927 0.18628 0.24428 0.00000
C934 C 0.49578 0.24867 0.19270 0.00000
C935 C 0.47921 0.24395 0.21299 0.00000
H936 H 0.73676 0.47329 0.20300 0.00000
C937 C 0.79146 0.50090 0.20655 0.00000
H938 H 0.74223 0.49289 0.24337 0.00000
C939 C 0.77762 0.50479 0.25745 0.00000
H940 H 0.82612 0.51208 0.22081 0.00000
H941 H 0.79625 0.50118 0.18910 0.00000
H942 H 0.77210 0.50710 0.27454 0.00000
C943 C 0.76727 0.49350 0.21361 0.00000
C944 C 0.75936 0.49636 0.23867 0.00000
N945 N 0.74815 0.48347 0.19611 0.00000
C946 C 0.80275 0.50959 0.25154 0.00000
C947 C 0.80917 0.50812 0.22575 0.00000
H948 H 0.50684 0.80267 0.26805 0.00000
C949 C 0.48071 0.77674 0.21894 0.00000
H950 H 0.53811 0.79095 0.23758 0.00000
C951 C 0.53115 0.76566 0.20751 0.00000
H952 H 0.47430 0.75150 0.18976 0.00000
H953 H 0.46340 0.78137 0.22147 0.00000
H954 H 0.54856 0.76310 0.20322 0.00000
C955 C 0.49958 0.78687 0.23415 0.00000
C956 C 0.52500 0.78270 0.22822 0.00000
N957 N 0.49496 0.80309 0.25623 0.00000
C958 C 0.51275 0.75295 0.19375 0.00000
C959 C 0.48752 0.75925 0.19938 0.00000
H960 H 0.17212 0.50088 0.24098 0.00000
C961 C 0.23322 0.50411 0.23622 0.00000
H962 H 0.18551 0.49032 0.19911 0.00000
C963 C 0.22183 0.49867 0.18485 0.00000
H964 H 0.26855 0.51275 0.22183 0.00000
H965 H 0.23796 0.50460 0.25368 0.00000
H966 H 0.21774 0.49555 0.16749 0.00000
C967 C 0.20835 0.49931 0.22928 0.00000
C968 C 0.20225 0.49528 0.20388 0.00000
N969 N 0.18720 0.49700 0.24717 0.00000
C970 C 0.24622 0.50630 0.19090 0.00000
C971 C 0.25172 0.50833 0.21686 0.00000
H972 H 0.50942 0.79473 0.72909 0.00000
C973 C 0.51343 0.78740 0.78989 0.00000
H974 H 0.47592 0.76845 0.74430 0.00000
C975 C 0.47611 0.75117 0.78027 0.00000
H976 H 0.51368 0.76986 0.82484 0.00000
H977 H 0.52513 0.80055 0.79412 0.00000
H978 H 0.46249 0.73974 0.77687 0.00000
C979 C 0.50353 0.78567 0.76563 0.00000
C980 C 0.48400 0.76861 0.76051 0.00000
N981 N 0.51141 0.80158 0.74425 0.00000
C982 C 0.48762 0.75045 0.80387 0.00000
C983 C 0.50590 0.76922 0.80853 0.00000
H984 H 0.19635 0.73262 0.50782 0.00000
C985 C 0.22415 0.78016 0.48073 0.00000
H986 H 0.20712 0.76432 0.53821 0.00000
C987 C 0.23314 0.79372 0.53106 0.00000
H988 H 0.25009 0.80869 0.47418 0.00000
H989 H 0.22026 0.77691 0.46336 0.00000
H990 H 0.23499 0.79875 0.54836 0.00000
C991 C 0.21297 0.76596 0.49978 0.00000
C992 C 0.21609 0.77297 0.52508 0.00000
N993 N 0.19664 0.74389 0.49543 0.00000
C994 C 0.24687 0.80646 0.51266 0.00000
C995 C 0.24161 0.79977 0.48744 0.00000
H996 H 0.79907 0.26029 0.47047 0.00000
C997 C 0.79360 0.20952 0.50452 0.00000
H998 H 0.75661 0.25539 0.48524 0.00000
C999 C 0.74222 0.22118 0.49988 0.00000
H1000 H 0.77909 0.17593 0.51833 0.00000
H1001 H 0.81100 0.20568 0.50770 0.00000
H1002 H 0.72480 0.22609 0.49919 0.00000
C1003 C 0.78682 0.23216 0.49307 0.00000
C1004 C 0.76136 0.23911 0.49157 0.00000
N1005 N 0.80488 0.25068 0.48290 0.00000
C1006 C 0.74824 0.19720 0.50875 0.00000
C1007 C 0.77418 0.19195 0.51151 0.00000
H1008 H 0.76305 0.82604 0.48210 0.00000
C1009 C 0.76863 0.77547 0.51642 0.00000
H1010 H 0.79174 0.79679 0.46298 0.00000
C1011 C 0.80811 0.76608 0.48250 0.00000
H1012 H 0.78528 0.74567 0.53551 0.00000
H1013 H 0.75444 0.77731 0.52750 0.00000
H1014 H 0.82074 0.76251 0.47002 0.00000
C1015 C 0.77175 0.79163 0.49595 0.00000
C1016 C 0.79052 0.78675 0.47800 0.00000
N1017 N 0.75571 0.81373 0.49078 0.00000
C1018 C 0.80732 0.75135 0.50423 0.00000
C1019 C 0.78696 0.75597 0.52073 0.00000
H1020 H 0.17476 0.24558 0.49285 0.00000
C1021 C 0.23453 0.23546 0.50246 0.00000
H1022 H 0.18327 0.20126 0.49560 0.00000
C1023 C 0.21985 0.18564 0.49247 0.00000
H1024 H 0.27020 0.21987 0.49880 0.00000
H1025 H 0.24002 0.25200 0.50734 0.00000
H1026 H 0.21434 0.16853 0.49025 0.00000
C1027 C 0.20895 0.23020 0.49966 0.00000
C1028 C 0.20091 0.20530 0.49588 0.00000
N1029 N 0.18870 0.24916 0.50142 0.00000
C1030 C 0.24561 0.19073 0.49228 0.00000
C1031 C 0.25260 0.21578 0.49795 0.00000
H1032 H 0.17782 0.52480 0.76134 0.00000
C1033 C 0.21976 0.48146 0.77274 0.00000
H1034 H 0.21333 0.54223 0.78325 0.00000
C1035 C 0.24039 0.52006 0.80244 0.00000
H1036 H 0.24606 0.45999 0.79214 0.00000
H1037 H 0.21408 0.46827 0.76173 0.00000
H1038 H 0.24790 0.53381 0.81153 0.00000
C1039 C 0.20897 0.50538 0.77156 0.00000
C1040 C 0.21959 0.52536 0.78523 0.00000
N1041 N 0.18709 0.51201 0.75576 0.00000
C1042 C 0.24974 0.49582 0.80624 0.00000
C1043 C 0.23954 0.47680 0.79068 0.00000
H1044 H 0.47940 0.17521 0.76264 0.00000
C1045 C 0.51745 0.22279 0.77005 0.00000
H1046 H 0.46054 0.20688 0.78883 0.00000
C1047 C 0.48122 0.23629 0.80614 0.00000
H1048 H 0.53759 0.25134 0.78762 0.00000
H1049 H 0.52950 0.21956 0.75694 0.00000
H1050 H 0.46806 0.24131 0.81753 0.00000
C1051 C 0.49544 0.20856 0.77172 0.00000
C1052 C 0.47644 0.21555 0.78872 0.00000
N1053 N 0.48973 0.18650 0.75581 0.00000
C1054 C 0.50415 0.24906 0.80693 0.00000
C1055 C 0.52187 0.24240 0.78822 0.00000
loop_
_geom_bond_atom_site_label_1
_geom_bond_atom_site_label_2
_geom_bond_distance
_geom_bond_site_symmetry_2
_ccdc_geom_bond_type
Zn0 O5 1.991 . S
Zn0 O6 1.968 . S
Zn0 O12 1.928 . S
Zn0 O13 1.929 . S
Zn1 O11 2.165 . S
Zn1 O13 2.095 . S
Zn1 O15 1.986 . S
Zn1 O16 2.003 . S
Zn2 O4 2.152 . S
Zn2 O13 2.019 . S
Zn2 O14 1.962 . S
Zn2 O17 2.073 . S
C3 O14 1.279 . A
C3 O15 1.276 . A
O4 C10 1.268 . A
O5 C10 1.245 . A
O6 C19 1.278 . A
O7 H18 0.840 . S
O7 C19 1.287 . A
C8 O16 1.272 . A
C8 O17 1.203 . A
C9 O11 1.275 . A
C9 O12 1.272 . A
Zn20 O25 1.991 . S
Zn20 O26 1.968 . S
Zn20 O32 1.928 . S
Zn20 O33 1.929 . S
Zn21 O31 2.165 . S
Zn21 O33 2.095 . S
Zn21 O35 1.986 . S
Zn21 O36 2.003 . S
Zn22 O24 2.152 . S
Zn22 O33 2.019 . S
Zn22 O34 1.962 . S
Zn22 O37 2.073 . S
C23 O34 1.279 . A
C23 O35 1.276 . A
O24 C30 1.268 . A
O25 C30 1.245 . A
O26 C39 1.278 . A
O27 H38 0.840 . S
O27 C39 1.287 . A
C28 O36 1.272 . A
C28 O37 1.203 . A
C29 O31 1.275 . A
C29 O32 1.272 . A
Zn40 O45 1.991 . S
Zn40 O46 1.968 . S
Zn40 O52 1.928 . S
Zn40 O53 1.929 . S
Zn41 O51 2.165 . S
Zn41 O53 2.095 . S
Zn41 O55 1.986 . S
Zn41 O56 2.003 . S
Zn42 O44 2.152 . S
Zn42 O53 2.019 . S
Zn42 O54 1.962 . S
Zn42 O57 2.073 . S
C43 O54 1.279 . A
C43 O55 1.276 . A
O44 C50 1.268 . A
O45 C50 1.245 . A
O46 C59 1.278 . A
O47 H58 0.840 . S
O47 C59 1.287 . A
C48 O56 1.272 . A
C48 O57 1.203 . A
C49 O51 1.275 . A
C49 O52 1.272 . A
Zn60 O65 1.991 . S
Zn60 O66 1.968 . S
Zn60 O72 1.928 . S
Zn60 O73 1.929 . S
Zn61 O71 2.165 . S
Zn61 O73 2.095 . S
Zn61 O75 1.986 . S
Zn61 O76 2.003 . S
Zn62 O64 2.152 . S
Zn62 O73 2.019 . S
Zn62 O74 1.962 . S
Zn62 O77 2.073 . S
C63 O74 1.279 . A
C63 O75 1.276 . A
O64 C70 1.268 . A
O65 C70 1.245 . A
O66 C79 1.278 . A
O67 H78 0.840 . S
O67 C79 1.287 . A
C68 O76 1.272 . A
C68 O77 1.203 . A
C69 O71 1.275 . A
C69 O72 1.272 . A
Zn80 O85 1.991 . S
Zn80 O86 1.968 . S
Zn80 O92 1.928 . S
Zn80 O93 1.929 . S
Zn81 O91 2.165 . S
Zn81 O93 2.095 . S
Zn81 O95 1.986 . S
Zn81 O96 2.003 . S
Zn82 O84 2.152 . S
Zn82 O93 2.019 . S
Zn82 O94 1.962 . S
Zn82 O97 2.073 . S
C83 O94 1.279 . A
C83 O95 1.276 . A
O84 C90 1.268 . A
O85 C90 1.245 . A
O86 C99 1.278 . A
O87 H98 0.840 . S
O87 C99 1.287 . A
C88 O96 1.272 . A
C88 O97 1.203 . A
C89 O91 1.275 . A
C89 O92 1.272 . A
Zn100 O105 1.991 . S
Zn100 O106 1.968 . S
Zn100 O112 1.928 . S
Zn100 O113 1.929 . S
Zn101 O111 2.165 . S
Zn101 O113 2.095 . S
Zn101 O115 1.986 . S
Zn101 O116 2.003 . S
Zn102 O104 2.152 . S
Zn102 O113 2.019 . S
Zn102 O114 1.962 . S
Zn102 O117 2.073 . S
C103 O114 1.279 . A
C103 O115 1.276 . A
O104 C110 1.268 . A
O105 C110 1.245 . A
O106 C119 1.278 . A
O107 H118 0.840 . S
O107 C119 1.287 . A
C108 O116 1.272 . A
C108 O117 1.203 . A
C109 O111 1.275 . A
C109 O112 1.272 . A
Zn120 O125 1.991 . S
Zn120 O126 1.968 . S
Zn120 O132 1.928 . S
Zn120 O133 1.929 . S
Zn121 O131 2.165 . S
Zn121 O133 2.095 . S
Zn121 O135 1.986 . S
Zn121 O136 2.003 . S
Zn122 O124 2.152 . S
Zn122 O133 2.019 . S
Zn122 O134 1.962 . S
Zn122 O137 2.073 . S
C123 O134 1.279 . A
C123 O135 1.276 . A
O124 C130 1.268 . A
O125 C130 1.245 . A
O126 C139 1.278 . A
O127 H138 0.840 . S
O127 C139 1.287 . A
C128 O136 1.272 . A
C128 O137 1.203 . A
C129 O131 1.275 . A
C129 O132 1.272 . A
Zn140 O145 1.991 . S
Zn140 O146 1.968 . S
Zn140 O152 1.928 . S
Zn140 O153 1.929 . S
Zn141 O151 2.165 . S
Zn141 O153 2.095 . S
Zn141 O155 1.986 . S
Zn141 O156 2.003 . S
Zn142 O144 2.152 . S
Zn142 O153 2.019 . S
Zn142 O154 1.962 . S
Zn142 O157 2.073 . S
C143 O154 1.279 . A
C143 O155 1.276 . A
O144 C150 1.268 . A
O145 C150 1.245 . A
O146 C159 1.278 . A
O147 H158 0.840 . S
O147 C159 1.287 . A
C148 O156 1.272 . A
C148 O157 1.203 . A
C149 O151 1.275 . A
C149 O152 1.272 . A
Zn160 O165 1.991 . S
Zn160 O166 1.968 . S
Zn160 O172 1.928 . S
Zn160 O173 1.929 . S
Zn161 O171 2.165 . S
Zn161 O173 2.095 . S
Zn161 O175 1.986 . S
Zn161 O176 2.003 . S
Zn162 O164 2.152 . S
Zn162 O173 2.019 . S
Zn162 O174 1.962 . S
Zn162 O177 2.073 . S
C163 O174 1.279 . A
C163 O175 1.276 . A
O164 C170 1.268 . A
O165 C170 1.245 . A
O166 C179 1.278 . A
O167 H178 0.840 . S
O167 C179 1.287 . A
C168 O176 1.272 . A
C168 O177 1.203 . A
C169 O171 1.275 . A
C169 O172 1.272 . A
Zn180 O185 1.991 . S
Zn180 O186 1.968 . S
Zn180 O192 1.928 . S
Zn180 O193 1.929 . S
Zn181 O191 2.165 . S
Zn181 O193 2.095 . S
Zn181 O195 1.986 . S
Zn181 O196 2.003 . S
Zn182 O184 2.152 . S
Zn182 O193 2.019 . S
Zn182 O194 1.962 . S
Zn182 O197 2.073 . S
C183 O194 1.279 . A
C183 O195 1.276 . A
O184 C190 1.268 . A
O185 C190 1.245 . A
O186 C199 1.278 . A
O187 H198 0.840 . S
O187 C199 1.287 . A
C188 O196 1.272 . A
C188 O197 1.203 . A
C189 O191 1.275 . A
C189 O192 1.272 . A
Zn200 O205 1.991 . S
Zn200 O206 1.968 . S
Zn200 O212 1.928 . S
Zn200 O213 1.929 . S
Zn201 O211 2.165 . S
Zn201 O213 2.095 . S
Zn201 O215 1.986 . S
Zn201 O216 2.003 . S
Zn202 O204 2.152 . S
Zn202 O213 2.019 . S
Zn202 O214 1.962 . S
Zn202 O217 2.073 . S
C203 O214 1.279 . A
C203 O215 1.276 . A
O204 C210 1.268 . A
O205 C210 1.245 . A
O206 C219 1.278 . A
O207 H218 0.840 . S
O207 C219 1.287 . A
C208 O216 1.272 . A
C208 O217 1.203 . A
C209 O211 1.275 . A
C209 O212 1.272 . A
Zn220 O225 1.991 . S
Zn220 O226 1.968 . S
Zn220 O232 1.928 . S
Zn220 O233 1.929 . S
Zn221 O231 2.165 . S
Zn221 O233 2.095 . S
Zn221 O235 1.986 . S
Zn221 O236 2.003 . S
Zn222 O224 2.152 . S
Zn222 O233 2.019 . S
Zn222 O234 1.962 . S
Zn222 O237 2.073 . S
C223 O234 1.279 . A
C223 O235 1.276 . A
O224 C230 1.268 . A
O225 C230 1.245 . A
O226 C239 1.278 . A
O227 H238 0.840 . S
O227 C239 1.287 . A
C228 O236 1.272 . A
C228 O237 1.203 . A
C229 O231 1.275 . A
C229 O232 1.272 . A
Zn240 O245 1.991 . S
Zn240 O246 1.968 . S
Zn240 O252 1.928 . S
Zn240 O253 1.929 . S
Zn241 O251 2.165 . S
Zn241 O253 2.095 . S
Zn241 O255 1.986 . S
Zn241 O256 2.003 . S
Zn242 O244 2.152 . S
Zn242 O253 2.019 . S
Zn242 O254 1.962 . S
Zn242 O257 2.073 . S
C243 O254 1.279 . A
C243 O255 1.276 . A
O244 C250 1.268 . A
O245 C250 1.245 . A
O246 C259 1.278 . A
O247 H258 0.840 . S
O247 C259 1.287 . A
C248 O256 1.272 . A
C248 O257 1.203 . A
C249 O251 1.275 . A
C249 O252 1.272 . A
Zn260 O265 1.991 . S
Zn260 O266 1.968 . S
Zn260 O272 1.928 . S
Zn260 O273 1.929 . S
Zn261 O271 2.165 . S
Zn261 O273 2.095 . S
Zn261 O275 1.986 . S
Zn261 O276 2.003 . S
Zn262 O264 2.152 . S
Zn262 O273 2.019 . S
Zn262 O274 1.962 . S
Zn262 O277 2.073 . S
C263 O274 1.279 . A
C263 O275 1.276 . A
O264 C270 1.268 . A
O265 C270 1.245 . A
O266 C279 1.278 . A
O267 H278 0.840 . S
O267 C279 1.287 . A
C268 O276 1.272 . A
C268 O277 1.203 . A
C269 O271 1.275 . A
C269 O272 1.272 . A
Zn280 O285 1.991 . S
Zn280 O286 1.968 . S
Zn280 O292 1.928 . S
Zn280 O293 1.929 . S
Zn281 O291 2.165 . S
Zn281 O293 2.095 . S
Zn281 O295 1.986 . S
Zn281 O296 2.003 . S
Zn282 O284 2.152 . S
Zn282 O293 2.019 . S
Zn282 O294 1.962 . S
Zn282 O297 2.073 . S
C283 O294 1.279 . A
C283 O295 1.276 . A
O284 C290 1.268 . A
O285 C290 1.245 . A
O286 C299 1.278 . A
O287 H298 0.840 . S
O287 C299 1.287 . A
C288 O296 1.272 . A
C288 O297 1.203 . A
C289 O291 1.275 . A
C289 O292 1.272 . A
Zn300 O305 1.991 . S
Zn300 O306 1.968 . S
Zn300 O312 1.928 . S
Zn300 O313 1.929 . S
Zn301 O311 2.165 . S
Zn301 O313 2.095 . S
Zn301 O315 1.986 . S
Zn301 O316 2.003 . S
Zn302 O304 2.152 . S
Zn302 O313 2.019 . S
Zn302 O314 1.962 . S
Zn302 O317 2.073 . S
C303 O314 1.279 . A
C303 O315 1.276 . A
O304 C310 1.268 . A
O305 C310 1.245 . A
O306 C319 1.278 . A
O307 H318 0.840 . S
O307 C319 1.287 . A
C308 O316 1.272 . A
C308 O317 1.203 . A
C309 O311 1.275 . A
C309 O312 1.272 . A
Zn320 O325 1.991 . S
Zn320 O326 1.968 . S
Zn320 O332 1.928 . S
Zn320 O333 1.929 . S
Zn321 O331 2.165 . S
Zn321 O333 2.095 . S
Zn321 O335 1.986 . S
Zn321 O336 2.003 . S
Zn322 O324 2.152 . S
Zn322 O333 2.019 . S
Zn322 O334 1.962 . S
Zn322 O337 2.073 . S
C323 O334 1.279 . A
C323 O335 1.276 . A
O324 C330 1.268 . A
O325 C330 1.245 . A
O326 C339 1.278 . A
O327 H338 0.840 . S
O327 C339 1.287 . A
C328 O336 1.272 . A
C328 O337 1.203 . A
C329 O331 1.275 . A
C329 O332 1.272 . A
Zn340 O345 1.991 . S
Zn340 O346 1.968 . S
Zn340 O352 1.928 . S
Zn340 O353 1.929 . S
Zn341 O351 2.165 . S
Zn341 O353 2.095 . S
Zn341 O355 1.986 . S
Zn341 O356 2.003 . S
Zn342 O344 2.152 . S
Zn342 O353 2.019 . S
Zn342 O354 1.962 . S
Zn342 O357 2.073 . S
C343 O354 1.279 . A
C343 O355 1.276 . A
O344 C350 1.268 . A
O345 C350 1.245 . A
O346 C359 1.278 . A
O347 H358 0.840 . S
O347 C359 1.287 . A
C348 O356 1.272 . A
C348 O357 1.203 . A
C349 O351 1.275 . A
C349 O352 1.272 . A
Zn360 O365 1.991 . S
Zn360 O366 1.968 . S
Zn360 O372 1.928 . S
Zn360 O373 1.929 . S
Zn361 O371 2.165 . S
Zn361 O373 2.095 . S
Zn361 O375 1.986 . S
Zn361 O376 2.003 . S
Zn362 O364 2.152 . S
Zn362 O373 2.019 . S
Zn362 O374 1.962 . S
Zn362 O377 2.073 . S
C363 O374 1.279 . A
C363 O375 1.276 . A
O364 C370 1.268 . A
O365 C370 1.245 . A
O366 C379 1.278 . A
O367 H378 0.840 . S
O367 C379 1.287 . A
C368 O376 1.272 . A
C368 O377 1.203 . A
C369 O371 1.275 . A
C369 O372 1.272 . A
Zn380 O385 1.991 . S
Zn380 O386 1.968 . S
Zn380 O392 1.928 . S
Zn380 O393 1.929 . S
Zn381 O391 2.165 . S
Zn381 O393 2.095 . S
Zn381 O395 1.986 . S
Zn381 O396 2.003 . S
Zn382 O384 2.152 . S
Zn382 O393 2.019 . S
Zn382 O394 1.962 . S
Zn382 O397 2.073 . S
C383 O394 1.279 . A
C383 O395 1.276 . A
O384 C390 1.268 . A
O385 C390 1.245 . A
O386 C399 1.278 . A
O387 H398 0.840 . S
O387 C399 1.287 . A
C388 O396 1.272 . A
C388 O397 1.203 . A
C389 O391 1.275 . A
C389 O392 1.272 . A
Zn400 O405 1.991 . S
Zn400 O406 1.968 . S
Zn400 O412 1.928 . S
Zn400 O413 1.929 . S
Zn401 O411 2.165 . S
Zn401 O413 2.095 . S
Zn401 O415 1.986 . S
Zn401 O416 2.003 . S
Zn402 O404 2.152 . S
Zn402 O413 2.019 . S
Zn402 O414 1.962 . S
Zn402 O417 2.073 . S
C403 O414 1.279 . A
C403 O415 1.276 . A
O404 C410 1.268 . A
O405 C410 1.245 . A
O406 C419 1.278 . A
O407 H418 0.840 . S
O407 C419 1.287 . A
C408 O416 1.272 . A
C408 O417 1.203 . A
C409 O411 1.275 . A
C409 O412 1.272 . A
Zn420 O425 1.991 . S
Zn420 O426 1.968 . S
Zn420 O432 1.928 . S
Zn420 O433 1.929 . S
Zn421 O431 2.165 . S
Zn421 O433 2.095 . S
Zn421 O435 1.986 . S
Zn421 O436 2.003 . S
Zn422 O424 2.152 . S
Zn422 O433 2.019 . S
Zn422 O434 1.962 . S
Zn422 O437 2.073 . S
C423 O434 1.279 . A
C423 O435 1.276 . A
O424 C430 1.268 . A
O425 C430 1.245 . A
O426 C439 1.278 . A
O427 H438 0.840 . S
O427 C439 1.287 . A
C428 O436 1.272 . A
C428 O437 1.203 . A
C429 O431 1.275 . A
C429 O432 1.272 . A
Zn440 O445 1.991 . S
Zn440 O446 1.968 . S
Zn440 O452 1.928 . S
Zn440 O453 1.929 . S
Zn441 O451 2.165 . S
Zn441 O453 2.095 . S
Zn441 O455 1.986 . S
Zn441 O456 2.003 . S
Zn442 O444 2.152 . S
Zn442 O453 2.019 . S
Zn442 O454 1.962 . S
Zn442 O457 2.073 . S
C443 O454 1.279 . A
C443 O455 1.276 . A
O444 C450 1.268 . A
O445 C450 1.245 . A
O446 C459 1.278 . A
O447 H458 0.840 . S
O447 C459 1.287 . A
C448 O456 1.272 . A
C448 O457 1.203 . A
C449 O451 1.275 . A
C449 O452 1.272 . A
Zn460 O465 1.991 . S
Zn460 O466 1.968 . S
Zn460 O472 1.928 . S
Zn460 O473 1.929 . S
Zn461 O471 2.165 . S
Zn461 O473 2.095 . S
Zn461 O475 1.986 . S
Zn461 O476 2.003 . S
Zn462 O464 2.152 . S
Zn462 O473 2.019 . S
Zn462 O474 1.962 . S
Zn462 O477 2.073 . S
C463 O474 1.279 . A
C463 O475 1.276 . A
O464 C470 1.268 . A
O465 C470 1.245 . A
O466 C479 1.278 . A
O467 H478 0.840 . S
O467 C479 1.287 . A
C468 O476 1.272 . A
C468 O477 1.203 . A
C469 O471 1.275 . A
C469 O472 1.272 . A
H480 N489 0.860 . S
C481 H485 0.929 . S
C481 C487 1.348 . A
C481 C491 1.391 . A
H482 C488 0.930 . S
C483 H486 0.930 . S
C483 C488 1.412 . A
C483 C490 1.348 . A
H484 C491 0.929 . S
C487 C488 1.357 . A
C487 N489 1.427 . S
C490 C491 1.366 . A
H492 N501 0.860 . S
C493 H497 0.929 . S
C493 C499 1.348 . A
C493 C503 1.391 . A
H494 C500 0.930 . S
C495 H498 0.930 . S
C495 C500 1.412 . A
C495 C502 1.348 . A
H496 C503 0.929 . S
C499 C500 1.357 . A
C499 N501 1.427 . S
C502 C503 1.366 . A
H504 N513 0.860 . S
C505 H509 0.929 . S
C505 C511 1.348 . A
C505 C515 1.391 . A
H506 C512 0.930 . S
C507 H510 0.930 . S
C507 C512 1.412 . A
C507 C514 1.348 . A
H508 C515 0.929 . S
C511 C512 1.357 . A
C511 N513 1.427 . S
C514 C515 1.366 . A
H516 N525 0.860 . S
C517 H521 0.929 . S
C517 C523 1.348 . A
C517 C527 1.391 . A
H518 C524 0.930 . S
C519 H522 0.930 . S
C519 C524 1.412 . A
C519 C526 1.348 . A
H520 C527 0.929 . S
C523 C524 1.357 . A
C523 N525 1.427 . S
C526 C527 1.366 . A
H528 N537 0.860 . S
C529 H533 0.929 . S
C529 C535 1.348 . A
C529 C539 1.391 . A
H530 C536 0.930 . S
C531 H534 0.930 . S
C531 C536 1.412 . A
C531 C538 1.348 . A
H532 C539 0.929 . S
C535 C536 1.357 . A
C535 N537 1.427 . S
C538 C539 1.366 . A
H540 N549 0.860 . S
C541 H545 0.929 . S
C541 C547 1.348 . A
C541 C551 1.391 . A
H542 C548 0.930 . S
C543 H546 0.930 . S
C543 C548 1.412 . A
C543 C550 1.348 . A
H544 C551 0.929 . S
C547 C548 1.357 . A
C547 N549 1.427 . S
C550 C551 1.366 . A
H552 N561 0.860 . S
C553 H557 0.929 . S
C553 C559 1.348 . A
C553 C563 1.391 . A
H554 C560 0.930 . S
C555 H558 0.930 . S
C555 C560 1.412 . A
C555 C562 1.348 . A
H556 C563 0.929 . S
C559 C560 1.357 . A
C559 N561 1.427 . S
C562 C563 1.366 . A
H564 N573 0.860 . S
C565 H569 0.929 . S
C565 C571 1.348 . A
C565 C575 1.391 . A
H566 C572 0.930 . S
C567 H570 0.930 . S
C567 C572 1.412 . A
C567 C574 1.348 . A
H568 C575 0.929 . S
C571 C572 1.357 . A
C571 N573 1.427 . S
C574 C575 1.366 . A
H576 N585 0.860 . S
C577 H581 0.929 . S
C577 C583 1.348 . A
C577 C587 1.391 . A
H578 C584 0.930 . S
C579 H582 0.930 . S
C579 C584 1.412 . A
C579 C586 1.348 . A
H580 C587 0.929 . S
C583 C584 1.357 . A
C583 N585 1.427 . S
C586 C587 1.366 . A
H588 N597 0.860 . S
C589 H593 0.929 . S
C589 C595 1.348 . A
C589 C599 1.391 . A
H590 C596 0.930 . S
C591 H594 0.930 . S
C591 C596 1.412 . A
C591 C598 1.348 . A
H592 C599 0.929 . S
C595 C596 1.357 . A
C595 N597 1.427 . S
C598 C599 1.366 . A
H600 N609 0.860 . S
C601 H605 0.929 . S
C601 C607 1.348 . A
C601 C611 1.391 . A
H602 C608 0.930 . S
C603 H606 0.930 . S
C603 C608 1.412 . A
C603 C610 1.348 . A
H604 C611 0.929 . S
C607 C608 1.357 . A
C607 N609 1.427 . S
C610 C611 1.366 . A
H612 N621 0.860 . S
C613 H617 0.929 . S
C613 C619 1.348 . A
C613 C623 1.391 . A
H614 C620 0.930 . S
C615 H618 0.930 . S
C615 C620 1.412 . A
C615 C622 1.348 . A
H616 C623 0.929 . S
C619 C620 1.357 . A
C619 N621 1.427 . S
C622 C623 1.366 . A
H624 N633 0.860 . S
C625 H629 0.929 . S
C625 C631 1.348 . A
C625 C635 1.391 . A
H626 C632 0.930 . S
C627 H630 0.930 . S
C627 C632 1.412 . A
C627 C634 1.348 . A
H628 C635 0.929 . S
C631 C632 1.357 . A
C631 N633 1.427 . S
C634 C635 1.366 . A
H636 N645 0.860 . S
C637 H641 0.929 . S
C637 C643 1.348 . A
C637 C647 1.391 . A
H638 C644 0.930 . S
C639 H642 0.930 . S
C639 C644 1.412 . A
C639 C646 1.348 . A
H640 C647 0.929 . S
C643 C644 1.357 . A
C643 N645 1.427 . S
C646 C647 1.366 . A
H648 N657 0.860 . S
C649 H653 0.929 . S
C649 C655 1.348 . A
C649 C659 1.391 . A
H650 C656 0.930 . S
C651 H654 0.930 . S
C651 C656 1.412 . A
C651 C658 1.348 . A
H652 C659 0.929 . S
C655 C656 1.357 . A
C655 N657 1.427 . S
C658 C659 1.366 . A
H660 N669 0.860 . S
C661 H665 0.929 . S
C661 C667 1.348 . A
C661 C671 1.391 . A
H662 C668 0.930 . S
C663 H666 0.930 . S
C663 C668 1.412 . A
C663 C670 1.348 . A
H664 C671 0.929 . S
C667 C668 1.357 . A
C667 N669 1.427 . S
C670 C671 1.366 . A
H672 N681 0.860 . S
C673 H677 0.929 . S
C673 C679 1.348 . A
C673 C683 1.391 . A
H674 C680 0.930 . S
C675 H678 0.930 . S
C675 C680 1.412 . A
C675 C682 1.348 . A
H676 C683 0.929 . S
C679 C680 1.357 . A
C679 N681 1.427 . S
C682 C683 1.366 . A
H684 N693 0.860 . S
C685 H689 0.929 . S
C685 C691 1.348 . A
C685 C695 1.391 . A
H686 C692 0.930 . S
C687 H690 0.930 . S
C687 C692 1.412 . A
C687 C694 1.348 . A
H688 C695 0.929 . S
C691 C692 1.357 . A
C691 N693 1.427 . S
C694 C695 1.366 . A
H696 N705 0.860 . S
C697 H701 0.929 . S
C697 C703 1.348 . A
C697 C707 1.391 . A
H698 C704 0.930 . S
C699 H702 0.930 . S
C699 C704 1.412 . A
C699 C706 1.348 . A
H700 C707 0.929 . S
C703 C704 1.357 . A
C703 N705 1.427 . S
C706 C707 1.366 . A
H708 N717 0.860 . S
C709 H713 0.929 . S
C709 C715 1.348 . A
C709 C719 1.391 . A
H710 C716 0.930 . S
C711 H714 0.930 . S
C711 C716 1.412 . A
C711 C718 1.348 . A
H712 C719 0.929 . S
C715 C716 1.357 . A
C715 N717 1.427 . S
C718 C719 1.366 . A
H720 N729 0.860 . S
C721 H725 0.929 . S
C721 C727 1.348 . A
C721 C731 1.391 . A
H722 C728 0.930 . S
C723 H726 0.930 . S
C723 C728 1.412 . A
C723 C730 1.348 . A
H724 C731 0.929 . S
C727 C728 1.357 . A
C727 N729 1.427 . S
C730 C731 1.366 . A
H732 N741 0.860 . S
C733 H737 0.929 . S
C733 C739 1.348 . A
C733 C743 1.391 . A
H734 C740 0.930 . S
C735 H738 0.930 . S
C735 C740 1.412 . A
C735 C742 1.348 . A
H736 C743 0.929 . S
C739 C740 1.357 . A
C739 N741 1.427 . S
C742 C743 1.366 . A
H744 N753 0.860 . S
C745 H749 0.929 . S
C745 C751 1.348 . A
C745 C755 1.391 . A
H746 C752 0.930 . S
C747 H750 0.930 . S
C747 C752 1.412 . A
C747 C754 1.348 . A
H748 C755 0.929 . S
C751 C752 1.357 . A
C751 N753 1.427 . S
C754 C755 1.366 . A
H756 N765 0.860 . S
C757 H761 0.929 . S
C757 C763 1.348 . A
C757 C767 1.391 . A
H758 C764 0.930 . S
C759 H762 0.930 . S
C759 C764 1.412 . A
C759 C766 1.348 . A
H760 C767 0.929 . S
C763 C764 1.357 . A
C763 N765 1.427 . S
C766 C767 1.366 . A
H768 N777 0.860 . S
C769 H773 0.929 . S
C769 C775 1.348 . A
C769 C779 1.391 1_455 A
H770 C776 0.930 1_455 S
C771 H774 0.930 . S
C771 C776 1.412 . A
C771 C778 1.348 . A
H772 C779 0.929 . S
C775 C776 1.357 1_455 A
C775 N777 1.427 . S
C778 C779 1.366 . A
H780 N789 0.860 . S
C781 H785 0.929 . S
C781 C787 1.348 . A
C781 C791 1.391 1_565 A
H782 C788 0.930 1_565 S
C783 H786 0.930 . S
C783 C788 1.412 . A
C783 C790 1.348 . A
H784 C791 0.929 . S
C787 C788 1.357 1_565 A
C787 N789 1.427 . S
C790 C791 1.366 . A
H792 N801 0.860 . S
C793 H797 0.929 . S
C793 C799 1.348 . A
C793 C803 1.391 1_455 A
H794 C800 0.930 1_455 S
C795 H798 0.930 . S
C795 C800 1.412 . A
C795 C802 1.348 . A
H796 C803 0.929 . S
C799 C800 1.357 1_455 A
C799 N801 1.427 . S
C802 C803 1.366 . A
H804 N813 0.860 . S
C805 H809 0.929 1_556 S
C805 C811 1.348 1_556 A
C805 C815 1.391 . A
H806 C812 0.930 . S
C807 H810 0.930 . S
C807 C812 1.412 1_556 A
C807 C814 1.348 . A
H808 C815 0.929 . S
C811 C812 1.357 . A
C811 N813 1.427 . S
C814 C815 1.366 . A
H816 N825 0.860 . S
C817 H821 0.929 1_565 S
C817 C823 1.348 1_565 A
C817 C827 1.391 . A
H818 C824 0.930 . S
C819 H822 0.930 . S
C819 C824 1.412 1_565 A
C819 C826 1.348 . A
H820 C827 0.929 . S
C823 C824 1.357 . A
C823 N825 1.427 . S
C826 C827 1.366 . A
H828 N837 0.860 . S
C829 H833 0.929 1_545 S
C829 C835 1.348 1_545 A
C829 C839 1.391 . A
H830 C836 0.930 . S
C831 H834 0.930 . S
C831 C836 1.412 1_545 A
C831 C838 1.348 . A
H832 C839 0.929 . S
C835 C836 1.357 . A
C835 N837 1.427 . S
C838 C839 1.366 . A
H840 N849 0.860 . S
C841 H845 0.929 1_455 S
C841 C847 1.348 1_455 A
C841 C851 1.391 . A
H842 C848 0.930 . S
C843 H846 0.930 . S
C843 C848 1.412 1_455 A
C843 C850 1.348 . A
H844 C851 0.929 . S
C847 C848 1.357 . A
C847 N849 1.427 . S
C850 C851 1.366 . A
H852 N861 0.860 . S
C853 H857 0.944 . S
C853 C859 1.364 . A
C853 C863 1.361 1_545 A
H854 C860 0.930 . S
C855 H858 0.930 . S
C855 C860 1.412 1_565 A
C855 C862 1.348 . A
H856 C863 0.929 . S
C859 C860 1.357 . A
C859 N861 1.427 . S
C862 C863 1.366 . A
H864 N873 0.860 . S
C865 H869 0.929 1_455 S
C865 C871 1.348 1_455 A
C865 C875 1.391 . A
H866 C872 0.930 . S
C867 H870 0.930 . S
C867 C872 1.412 1_455 A
C867 C874 1.348 . A
H868 C875 0.929 . S
C871 C872 1.357 . A
C871 N873 1.427 . S
C874 C875 1.366 . A
H876 N885 0.860 . S
C877 H881 0.929 1_556 S
C877 C883 1.348 1_556 A
C877 C887 1.391 . A
H878 C884 0.930 . S
C879 H882 0.930 . S
C879 C884 1.412 1_556 A
C879 C886 1.348 . A
H880 C887 0.929 . S
C883 C884 1.357 . A
C883 N885 1.427 . S
C886 C887 1.366 . A
H888 N897 0.860 . S
C889 H893 0.921 1_556 S
C889 C895 1.337 1_556 A
C889 C899 1.411 . A
H890 C896 0.930 . S
C891 H894 0.930 . S
C891 C896 1.412 1_556 A
C891 C898 1.348 . A
H892 C899 0.929 . S
C895 C896 1.357 . A
C895 N897 1.427 . S
C898 C899 1.366 . A
H900 N909 0.860 . S
C901 H905 0.929 . S
C901 C907 1.348 . A
C901 C911 1.391 1_554 A
H902 C908 0.930 1_554 S
C903 H906 0.930 . S
C903 C908 1.412 . A
C903 C910 1.348 . A
H904 C911 0.929 . S
C907 C908 1.357 1_554 A
C907 N909 1.427 . S
C910 C911 1.366 . A
H912 N921 0.860 . S
C913 H917 0.929 . S
C913 C919 1.348 . A
C913 C923 1.391 . A
H914 C920 0.930 . S
C915 H918 0.930 . S
C915 C920 1.412 . A
C915 C922 1.348 . A
H916 C923 0.929 . S
C919 C920 1.357 . A
C919 N921 1.427 . S
C922 C923 1.366 . A
H924 N933 0.860 . S
C925 H929 0.929 . S
C925 C931 1.348 . A
C925 C935 1.391 . A
H926 C932 0.930 . S
C927 H930 0.930 . S
C927 C932 1.412 . A
C927 C934 1.348 . A
H928 C935 0.929 . S
C931 C932 1.357 . A
C931 N933 1.427 . S
C934 C935 1.366 . A
H936 N945 0.860 . S
C937 H941 0.929 . S
C937 C943 1.348 . A
C937 C947 1.391 . A
H938 C944 0.930 . S
C939 H942 0.930 . S
C939 C944 1.412 . A
C939 C946 1.348 . A
H940 C947 0.929 . S
C943 C944 1.357 . A
C943 N945 1.427 . S
C946 C947 1.366 . A
H948 N957 0.860 . S
C949 H953 0.929 . S
C949 C955 1.348 . A
C949 C959 1.391 . A
H950 C956 0.930 . S
C951 H954 0.930 . S
C951 C956 1.412 . A
C951 C958 1.348 . A
H952 C959 0.929 . S
C955 C956 1.357 . A
C955 N957 1.427 . S
C958 C959 1.366 . A
H960 N969 0.860 . S
C961 H965 0.929 . S
C961 C967 1.348 . A
C961 C971 1.391 . A
H962 C968 0.930 . S
C963 H966 0.930 . S
C963 C968 1.412 . A
C963 C970 1.348 . A
H964 C971 0.929 . S
C967 C968 1.357 . A
C967 N969 1.427 . S
C970 C971 1.366 . A
H972 N981 0.860 . S
C973 H977 0.929 . S
C973 C979 1.348 . A
C973 C983 1.391 . A
H974 C980 0.930 . S
C975 H978 0.930 . S
C975 C980 1.412 . A
C975 C982 1.348 . A
H976 C983 0.929 . S
C979 C980 1.357 . A
C979 N981 1.427 . S
C982 C983 1.366 . A
H984 N993 0.860 . S
C985 H989 0.929 . S
C985 C991 1.348 . A
C985 C995 1.391 . A
H986 C992 0.930 . S
C987 H990 0.930 . S
C987 C992 1.412 . A
C987 C994 1.348 . A
H988 C995 0.929 . S
C991 C992 1.357 . A
C991 N993 1.427 . S
C994 C995 1.366 . A
H996 N1005 0.860 . S
C997 H1001 0.929 . S
C997 C1003 1.348 . A
C997 C1007 1.391 . A
H998 C1004 0.930 . S
C999 H1002 0.930 . S
C999 C1004 1.412 . A
C999 C1006 1.348 . A
H1000 C1007 0.929 . S
C1003 C1004 1.357 . A
C1003 N1005 1.427 . S
C1006 C1007 1.366 . A
H1008 N1017 0.860 . S
C1009 H1013 0.929 . S
C1009 C1015 1.348 . A
C1009 C1019 1.391 . A
H1010 C1016 0.930 . S
C1011 H1014 0.930 . S
C1011 C1016 1.412 . A
C1011 C1018 1.348 . A
H1012 C1019 0.929 . S
C1015 C1016 1.357 . A
C1015 N1017 1.427 . S
C1018 C1019 1.366 . A
H1020 N1029 0.860 . S
C1021 H1025 0.929 . S
C1021 C1027 1.348 . A
C1021 C1031 1.391 . A
H1022 C1028 0.930 . S
C1023 H1026 0.930 . S
C1023 C1028 1.412 . A
C1023 C1030 1.348 . A
H1024 C1031 0.929 . S
C1027 C1028 1.357 . A
C1027 N1029 1.427 . S
C1030 C1031 1.366 . A
H1032 N1041 0.860 . S
C1033 H1037 0.929 . S
C1033 C1039 1.348 . A
C1033 C1043 1.391 . A
H1034 C1040 0.930 . S
C1035 H1038 0.930 . S
C1035 C1040 1.412 . A
C1035 C1042 1.348 . A
H1036 C1043 0.929 . S
C1039 C1040 1.357 . A
C1039 N1041 1.427 . S
C1042 C1043 1.366 . A
H1044 N1053 0.860 . S
C1045 H1049 0.929 . S
C1045 C1051 1.348 . A
C1045 C1055 1.391 . A
H1046 C1052 0.930 . S
C1047 H1050 0.930 . S
C1047 C1052 1.412 . A
C1047 C1054 1.348 . A
H1048 C1055 0.929 . S
C1051 C1052 1.357 . A
C1051 N1053 1.427 . S
C1054 C1055 1.366 . A
N489 C299 1.272 . S
C490 C9 1.394 . S
N501 C29 1.279 . S
C502 C219 1.306 . S
N513 C239 1.332 . S
C514 C49 1.406 . S
N525 C179 1.299 . S
C526 C69 1.455 . S
N537 C259 1.222 . S
C538 C89 1.437 . S
N549 C319 1.328 . S
C550 C109 1.405 . S
N561 C379 1.426 . S
C562 C129 1.451 . S
N573 C429 1.414 . S
C574 C79 1.369 . S
N585 C189 1.301 . S
C586 C99 1.291 . S
N597 C159 1.166 . S
C598 C169 1.392 . S
N609 C449 1.347 . S
C610 C199 1.305 . S
N621 C279 1.153 . S
C622 C469 1.403 . S
N633 C269 1.427 . S
C634 C39 1.404 . S
N645 C439 1.418 . S
C646 C149 1.440 . S
N657 C309 1.426 . S
C658 C399 1.413 . S
N669 C139 1.160 . S
C670 C329 1.411 . S
N681 C339 1.153 . S
C682 C349 1.399 . S
N693 C359 1.153 . S
C694 C369 1.400 . S
N705 C389 1.283 . S
C706 C419 1.299 . S
N717 C409 1.414 . S
C718 C119 1.427 . S
N729 C289 1.427 . S
C730 C59 1.401 . S
N741 C249 1.422 . S
C742 C459 1.384 . S
N753 C209 1.427 . S
C754 C479 1.405 . S
N765 C19 1.325 . S
C766 C229 1.459 . S
N777 C450 1.347 . S
C778 C10 1.422 . S
N789 C70 1.376 . S
C790 C30 1.432 . S
N801 C90 1.407 . S
C802 C50 1.448 . S
N813 C130 1.397 . S
C814 C110 1.472 . S
N825 C470 1.378 . S
C826 C150 1.466 . S
N837 C170 1.374 . S
C838 C270 1.464 . S
N849 C230 1.385 . S
C850 C190 1.468 . S
N861 C210 1.427 . S
C862 C430 1.470 . S
N873 C290 1.376 . S
C874 C250 1.465 . S
N885 C330 1.379 . S
C886 C310 1.466 . S
N897 C350 1.421 . S
C898 C390 1.474 . S
N909 C370 1.341 . S
C910 C410 1.421 . S
N921 C108 1.233 . S
C922 C8 1.381 . S
N933 C28 1.254 . S
C934 C368 1.384 . S
N945 C128 1.253 . S
C946 C48 1.369 . S
N957 C68 1.345 . S
C958 C328 1.327 . S
N969 C88 1.308 . S
C970 C348 1.359 . S
N981 C148 1.306 . S
C982 C308 1.343 . S
N993 C188 1.347 . S
C994 C168 1.326 . S
N1005 C288 1.243 . S
C1006 C208 1.375 . S
N1017 C428 1.254 . S
C1018 C228 1.384 . S
N1029 C248 1.328 . S
C1030 C268 1.348 . S
N1041 C448 1.237 . S
C1042 C388 1.389 . S
N1053 C468 1.247 . S
C1054 C408 1.386 . S
