# Generated by pormake.
# Topology lta, (4)-cn, num edge types: 1
# Building blocks:
#     Node 0, Type 0, BuildingBlock: N671, # of connection points: 5
#     Node 1, Type 0, BuildingBlock: N671, # of connection points: 5
#     Node 2, Type 0, BuildingBlock: N671, # of connection points: 5
#     Node 3, Type 0, BuildingBlock: N671, # of connection points: 5
#     Node 4, Type 0, BuildingBlock: N671, # of connection points: 5
#     Node 5, Type 0, BuildingBlock: N671, # of connection points: 5
#     Node 6, Type 0, BuildingBlock: N671, # of connection points: 5
#     Node 7, Type 0, BuildingBlock: N671, # of connection points: 5
#     Node 8, Type 0, BuildingBlock: N671, # of connection points: 5
#     Node 9, Type 0, BuildingBlock: N671, # of connection points: 5
#     Node 10, Type 0, BuildingBlock: N671, # of connection points: 5
#     Node 11, Type 0, BuildingBlock: N671, # of connection points: 5
#     Node 12, Type 0, BuildingBlock: N671, # of connection points: 5
#     Node 13, Type 0, BuildingBlock: N671, # of connection points: 5
#     Node 14, Type 0, BuildingBlock: N671, # of connection points: 5
#     Node 15, Type 0, BuildingBlock: N671, # of connection points: 5
#     Node 16, Type 0, BuildingBlock: N671, # of connection points: 5
#     Node 17, Type 0, BuildingBlock: N671, # of connection points: 5
#     Node 18, Type 0, BuildingBlock: N671, # of connection points: 5
#     Node 19, Type 0, BuildingBlock: N671, # of connection points: 5
#     Node 20, Type 0, BuildingBlock: N671, # of connection points: 5
#     Node 21, Type 0, BuildingBlock: N671, # of connection points: 5
#     Node 22, Type 0, BuildingBlock: N671, # of connection points: 5
#     Node 23, Type 0, BuildingBlock: N671, # of connection points: 5
#     Edge 24, Type (0, 0), BuildingBlock: E162, # of connection points: 2
#     Edge 25, Type (0, 0), BuildingBlock: E162, # of connection points: 2
#     Edge 26, Type (0, 0), BuildingBlock: E162, # of connection points: 2
#     Edge 27, Type (0, 0), BuildingBlock: E162, # of connection points: 2
#     Edge 28, Type (0, 0), BuildingBlock: E162, # of connection points: 2
#     Edge 29, Type (0, 0), BuildingBlock: E162, # of connection points: 2
#     Edge 30, Type (0, 0), BuildingBlock: E162, # of connection points: 2
#     Edge 31, Type (0, 0), BuildingBlock: E162, # of connection points: 2
#     Edge 32, Type (0, 0), BuildingBlock: E162, # of connection points: 2
#     Edge 33, Type (0, 0), BuildingBlock: E162, # of connection points: 2
#     Edge 34, Type (0, 0), BuildingBlock: E162, # of connection points: 2
#     Edge 35, Type (0, 0), BuildingBlock: E162, # of connection points: 2
#     Edge 36, Type (0, 0), BuildingBlock: E162, # of connection points: 2
#     Edge 37, Type (0, 0), BuildingBlock: E162, # of connection points: 2
#     Edge 38, Type (0, 0), BuildingBlock: E162, # of connection points: 2
#     Edge 39, Type (0, 0), BuildingBlock: E162, # of connection points: 2
#     Edge 40, Type (0, 0), BuildingBlock: E162, # of connection points: 2
#     Edge 41, Type (0, 0), BuildingBlock: E162, # of connection points: 2
#     Edge 42, Type (0, 0), BuildingBlock: E162, # of connection points: 2
#     Edge 43, Type (0, 0), BuildingBlock: E162, # of connection points: 2
#     Edge 44, Type (0, 0), BuildingBlock: E162, # of connection points: 2
#     Edge 45, Type (0, 0), BuildingBlock: E162, # of connection points: 2
#     Edge 46, Type (0, 0), BuildingBlock: E162, # of connection points: 2
#     Edge 47, Type (0, 0), BuildingBlock: E162, # of connection points: 2
#     Edge 48, Type (0, 0), BuildingBlock: E162, # of connection points: 2
#     Edge 49, Type (0, 0), BuildingBlock: E162, # of connection points: 2
#     Edge 50, Type (0, 0), BuildingBlock: E162, # of connection points: 2
#     Edge 51, Type (0, 0), BuildingBlock: E162, # of connection points: 2
#     Edge 52, Type (0, 0), BuildingBlock: E162, # of connection points: 2
#     Edge 53, Type (0, 0), BuildingBlock: E162, # of connection points: 2
#     Edge 54, Type (0, 0), BuildingBlock: E162, # of connection points: 2
#     Edge 55, Type (0, 0), BuildingBlock: E162, # of connection points: 2
#     Edge 56, Type (0, 0), BuildingBlock: E162, # of connection points: 2
#     Edge 57, Type (0, 0), BuildingBlock: E162, # of connection points: 2
#     Edge 58, Type (0, 0), BuildingBlock: E162, # of connection points: 2
#     Edge 59, Type (0, 0), BuildingBlock: E162, # of connection points: 2
#     Edge 60, Type (0, 0), BuildingBlock: E162, # of connection points: 2
#     Edge 61, Type (0, 0), BuildingBlock: E162, # of connection points: 2
#     Edge 62, Type (0, 0), BuildingBlock: E162, # of connection points: 2
#     Edge 63, Type (0, 0), BuildingBlock: E162, # of connection points: 2
#     Edge 64, Type (0, 0), BuildingBlock: E162, # of connection points: 2
#     Edge 65, Type (0, 0), BuildingBlock: E162, # of connection points: 2
#     Edge 66, Type (0, 0), BuildingBlock: E162, # of connection points: 2
#     Edge 67, Type (0, 0), BuildingBlock: E162, # of connection points: 2
#     Edge 68, Type (0, 0), BuildingBlock: E162, # of connection points: 2
#     Edge 69, Type (0, 0), BuildingBlock: E162, # of connection points: 2
#     Edge 70, Type (0, 0), BuildingBlock: E162, # of connection points: 2
#     Edge 71, Type (0, 0), BuildingBlock: E162, # of connection points: 2
# Relax obj value: 0.036
# Max RMSD: 0.170
# Mean RMSD: 0.170
data_lta+N671+E162
_symmetry_space_group_name_H-M    P1
_symmetry_Int_Tables_number       1
_symmetry_cell_setting            triclinic
loop_
_symmetry_equiv_pos_as_xyz
'x, y, z'
_cell_length_a     40.242
_cell_length_b     40.242
_cell_length_c     40.242
_cell_angle_alpha  90.000
_cell_angle_beta   90.000
_cell_angle_gamma  90.000
loop_
_atom_site_label
_atom_site_type_symbol
_atom_site_fract_x
_atom_site_fract_y
_atom_site_fract_z
_atom_type_partial_charge
Zn0 Zn 0.89558 0.48575 0.64966 0.00000
Zn1 Zn 0.83196 0.44948 0.68759 0.00000
Zn2 Zn 0.88495 0.49571 0.73102 0.00000
C3 C 0.88594 0.42430 0.73508 0.00000
O4 O 0.93242 0.51027 0.71114 0.00000
O5 O 0.94074 0.47720 0.66799 0.00000
O6 O 0.89917 0.52957 0.62826 0.00000
O7 O 0.84858 0.52304 0.62167 0.00000
C8 C 0.81238 0.48528 0.74858 0.00000
C9 C 0.87321 0.42752 0.62388 0.00000
C10 C 0.95119 0.49587 0.69032 0.00000
O11 O 0.86205 0.42143 0.65291 0.00000
O12 O 0.88868 0.45356 0.61483 0.00000
O13 O 0.86424 0.49028 0.68564 0.00000
O14 O 0.90066 0.45124 0.74330 0.00000
O15 O 0.85871 0.42233 0.71894 0.00000
O16 O 0.80307 0.47039 0.72232 0.00000
O17 O 0.83915 0.49717 0.75458 0.00000
H18 H 0.84899 0.51061 0.63846 0.00000
C19 C 0.87172 0.54497 0.62414 0.00000
Zn20 Zn 0.51425 0.10442 0.35034 0.00000
Zn21 Zn 0.55052 0.16804 0.31241 0.00000
Zn22 Zn 0.50429 0.11505 0.26898 0.00000
C23 C 0.57570 0.11406 0.26492 0.00000
O24 O 0.48973 0.06758 0.28886 0.00000
O25 O 0.52280 0.05926 0.33201 0.00000
O26 O 0.47043 0.10083 0.37174 0.00000
O27 O 0.47696 0.15142 0.37833 0.00000
C28 C 0.51472 0.18762 0.25142 0.00000
C29 C 0.57248 0.12679 0.37612 0.00000
C30 C 0.50413 0.04881 0.30968 0.00000
O31 O 0.57857 0.13795 0.34709 0.00000
O32 O 0.54644 0.11132 0.38517 0.00000
O33 O 0.50972 0.13576 0.31436 0.00000
O34 O 0.54876 0.09934 0.25670 0.00000
O35 O 0.57767 0.14129 0.28106 0.00000
O36 O 0.52961 0.19693 0.27768 0.00000
O37 O 0.50283 0.16085 0.24542 0.00000
H38 H 0.48939 0.15101 0.36154 0.00000
C39 C 0.45503 0.12828 0.37586 0.00000
Zn40 Zn 0.89558 0.51425 0.35034 0.00000
Zn41 Zn 0.83196 0.55052 0.31241 0.00000
Zn42 Zn 0.88495 0.50429 0.26898 0.00000
C43 C 0.88594 0.57570 0.26492 0.00000
O44 O 0.93242 0.48973 0.28886 0.00000
O45 O 0.94074 0.52280 0.33201 0.00000
O46 O 0.89917 0.47043 0.37174 0.00000
O47 O 0.84858 0.47696 0.37833 0.00000
C48 C 0.81238 0.51472 0.25142 0.00000
C49 C 0.87321 0.57248 0.37612 0.00000
C50 C 0.95119 0.50413 0.30968 0.00000
O51 O 0.86205 0.57857 0.34709 0.00000
O52 O 0.88868 0.54644 0.38517 0.00000
O53 O 0.86424 0.50972 0.31436 0.00000
O54 O 0.90066 0.54876 0.25670 0.00000
O55 O 0.85871 0.57767 0.28106 0.00000
O56 O 0.80307 0.52961 0.27768 0.00000
O57 O 0.83915 0.50283 0.24542 0.00000
H58 H 0.84899 0.48939 0.36154 0.00000
C59 C 0.87172 0.45503 0.37586 0.00000
Zn60 Zn 0.48575 0.89558 0.35034 0.00000
Zn61 Zn 0.44948 0.83196 0.31241 0.00000
Zn62 Zn 0.49571 0.88495 0.26898 0.00000
C63 C 0.42430 0.88594 0.26492 0.00000
O64 O 0.51027 0.93242 0.28886 0.00000
O65 O 0.47720 0.94074 0.33201 0.00000
O66 O 0.52957 0.89917 0.37174 0.00000
O67 O 0.52304 0.84858 0.37833 0.00000
C68 C 0.48528 0.81238 0.25142 0.00000
C69 C 0.42752 0.87321 0.37612 0.00000
C70 C 0.49587 0.95119 0.30968 0.00000
O71 O 0.42143 0.86205 0.34709 0.00000
O72 O 0.45356 0.88868 0.38517 0.00000
O73 O 0.49028 0.86423 0.31436 0.00000
O74 O 0.45124 0.90066 0.25670 0.00000
O75 O 0.42233 0.85871 0.28106 0.00000
O76 O 0.47039 0.80307 0.27768 0.00000
O77 O 0.49717 0.83915 0.24542 0.00000
H78 H 0.51061 0.84899 0.36154 0.00000
C79 C 0.54497 0.87172 0.37586 0.00000
Zn80 Zn 0.10442 0.48575 0.35034 0.00000
Zn81 Zn 0.16804 0.44948 0.31241 0.00000
Zn82 Zn 0.11505 0.49571 0.26898 0.00000
C83 C 0.11406 0.42430 0.26492 0.00000
O84 O 0.06758 0.51027 0.28886 0.00000
O85 O 0.05926 0.47720 0.33201 0.00000
O86 O 0.10083 0.52957 0.37174 0.00000
O87 O 0.15142 0.52304 0.37833 0.00000
C88 C 0.18762 0.48528 0.25142 0.00000
C89 C 0.12679 0.42752 0.37612 0.00000
C90 C 0.04881 0.49587 0.30968 0.00000
O91 O 0.13795 0.42143 0.34709 0.00000
O92 O 0.11132 0.45356 0.38517 0.00000
O93 O 0.13576 0.49028 0.31436 0.00000
O94 O 0.09934 0.45124 0.25670 0.00000
O95 O 0.14129 0.42233 0.28106 0.00000
O96 O 0.19693 0.47039 0.27768 0.00000
O97 O 0.16085 0.49717 0.24542 0.00000
H98 H 0.15101 0.51061 0.36154 0.00000
C99 C 0.12828 0.54497 0.37586 0.00000
Zn100 Zn 0.64966 0.51425 0.89558 0.00000
Zn101 Zn 0.68759 0.55052 0.83196 0.00000
Zn102 Zn 0.73102 0.50429 0.88495 0.00000
C103 C 0.73508 0.57570 0.88594 0.00000
O104 O 0.71114 0.48973 0.93242 0.00000
O105 O 0.66799 0.52280 0.94074 0.00000
O106 O 0.62826 0.47043 0.89917 0.00000
O107 O 0.62167 0.47696 0.84858 0.00000
C108 C 0.74858 0.51472 0.81238 0.00000
C109 C 0.62388 0.57248 0.87321 0.00000
C110 C 0.69032 0.50413 0.95119 0.00000
O111 O 0.65291 0.57857 0.86205 0.00000
O112 O 0.61483 0.54644 0.88868 0.00000
O113 O 0.68564 0.50972 0.86424 0.00000
O114 O 0.74330 0.54876 0.90066 0.00000
O115 O 0.71894 0.57767 0.85871 0.00000
O116 O 0.72232 0.52961 0.80307 0.00000
O117 O 0.75458 0.50283 0.83915 0.00000
H118 H 0.63846 0.48939 0.84899 0.00000
C119 C 0.62414 0.45503 0.87172 0.00000
Zn120 Zn 0.64966 0.48575 0.10442 0.00000
Zn121 Zn 0.68759 0.44948 0.16804 0.00000
Zn122 Zn 0.73102 0.49571 0.11505 0.00000
C123 C 0.73508 0.42430 0.11406 0.00000
O124 O 0.71114 0.51027 0.06758 0.00000
O125 O 0.66799 0.47720 0.05926 0.00000
O126 O 0.62826 0.52957 0.10083 0.00000
O127 O 0.62167 0.52304 0.15142 0.00000
C128 C 0.74858 0.48528 0.18762 0.00000
C129 C 0.62388 0.42752 0.12679 0.00000
C130 C 0.69032 0.49587 0.04881 0.00000
O131 O 0.65291 0.42143 0.13795 0.00000
O132 O 0.61483 0.45356 0.11132 0.00000
O133 O 0.68564 0.49028 0.13576 0.00000
O134 O 0.74330 0.45124 0.09934 0.00000
O135 O 0.71894 0.42233 0.14129 0.00000
O136 O 0.72232 0.47039 0.19693 0.00000
O137 O 0.75458 0.49717 0.16085 0.00000
H138 H 0.63846 0.51061 0.15101 0.00000
C139 C 0.62414 0.54497 0.12828 0.00000
Zn140 Zn 0.51425 0.89558 0.64966 0.00000
Zn141 Zn 0.55052 0.83196 0.68759 0.00000
Zn142 Zn 0.50429 0.88495 0.73102 0.00000
C143 C 0.57570 0.88594 0.73508 0.00000
O144 O 0.48973 0.93242 0.71114 0.00000
O145 O 0.52280 0.94074 0.66799 0.00000
O146 O 0.47043 0.89917 0.62826 0.00000
O147 O 0.47696 0.84858 0.62167 0.00000
C148 C 0.51472 0.81238 0.74858 0.00000
C149 C 0.57248 0.87321 0.62388 0.00000
C150 C 0.50413 0.95119 0.69032 0.00000
O151 O 0.57857 0.86205 0.65291 0.00000
O152 O 0.54644 0.88868 0.61483 0.00000
O153 O 0.50972 0.86423 0.68564 0.00000
O154 O 0.54876 0.90066 0.74330 0.00000
O155 O 0.57767 0.85871 0.71894 0.00000
O156 O 0.52961 0.80307 0.72232 0.00000
O157 O 0.50283 0.83915 0.75458 0.00000
H158 H 0.48939 0.84899 0.63846 0.00000
C159 C 0.45503 0.87172 0.62414 0.00000
Zn160 Zn 0.35034 0.89558 0.51425 0.00000
Zn161 Zn 0.31241 0.83196 0.55052 0.00000
Zn162 Zn 0.26898 0.88495 0.50429 0.00000
C163 C 0.26492 0.88594 0.57570 0.00000
O164 O 0.28886 0.93242 0.48973 0.00000
O165 O 0.33201 0.94074 0.52280 0.00000
O166 O 0.37174 0.89917 0.47043 0.00000
O167 O 0.37833 0.84858 0.47696 0.00000
C168 C 0.25142 0.81238 0.51472 0.00000
C169 C 0.37612 0.87321 0.57248 0.00000
C170 C 0.30968 0.95119 0.50413 0.00000
O171 O 0.34709 0.86205 0.57857 0.00000
O172 O 0.38517 0.88868 0.54644 0.00000
O173 O 0.31436 0.86424 0.50972 0.00000
O174 O 0.25670 0.90066 0.54876 0.00000
O175 O 0.28106 0.85871 0.57767 0.00000
O176 O 0.27768 0.80307 0.52961 0.00000
O177 O 0.24542 0.83915 0.50283 0.00000
H178 H 0.36154 0.84899 0.48939 0.00000
C179 C 0.37586 0.87172 0.45503 0.00000
Zn180 Zn 0.10442 0.64966 0.48575 0.00000
Zn181 Zn 0.16804 0.68759 0.44948 0.00000
Zn182 Zn 0.11505 0.73102 0.49571 0.00000
C183 C 0.11406 0.73508 0.42430 0.00000
O184 O 0.06758 0.71114 0.51027 0.00000
O185 O 0.05926 0.66799 0.47720 0.00000
O186 O 0.10083 0.62826 0.52957 0.00000
O187 O 0.15142 0.62167 0.52304 0.00000
C188 C 0.18762 0.74858 0.48528 0.00000
C189 C 0.12679 0.62388 0.42752 0.00000
C190 C 0.04881 0.69032 0.49587 0.00000
O191 O 0.13795 0.65291 0.42143 0.00000
O192 O 0.11132 0.61483 0.45356 0.00000
O193 O 0.13576 0.68564 0.49028 0.00000
O194 O 0.09934 0.74330 0.45124 0.00000
O195 O 0.14129 0.71894 0.42233 0.00000
O196 O 0.19693 0.72232 0.47039 0.00000
O197 O 0.16085 0.75458 0.49717 0.00000
H198 H 0.15101 0.63846 0.51061 0.00000
C199 C 0.12828 0.62414 0.54497 0.00000
Zn200 Zn 0.64966 0.10442 0.51425 0.00000
Zn201 Zn 0.68759 0.16804 0.55052 0.00000
Zn202 Zn 0.73102 0.11505 0.50429 0.00000
C203 C 0.73508 0.11406 0.57570 0.00000
O204 O 0.71114 0.06758 0.48973 0.00000
O205 O 0.66799 0.05926 0.52280 0.00000
O206 O 0.62826 0.10083 0.47043 0.00000
O207 O 0.62167 0.15142 0.47696 0.00000
C208 C 0.74858 0.18762 0.51472 0.00000
C209 C 0.62388 0.12679 0.57248 0.00000
C210 C 0.69032 0.04881 0.50413 0.00000
O211 O 0.65291 0.13795 0.57857 0.00000
O212 O 0.61483 0.11132 0.54644 0.00000
O213 O 0.68564 0.13576 0.50972 0.00000
O214 O 0.74330 0.09934 0.54876 0.00000
O215 O 0.71894 0.14129 0.57767 0.00000
O216 O 0.72232 0.19693 0.52961 0.00000
O217 O 0.75458 0.16085 0.50283 0.00000
H218 H 0.63846 0.15101 0.48939 0.00000
C219 C 0.62414 0.12828 0.45503 0.00000
Zn220 Zn 0.89558 0.64966 0.51425 0.00000
Zn221 Zn 0.83196 0.68759 0.55052 0.00000
Zn222 Zn 0.88495 0.73102 0.50429 0.00000
C223 C 0.88594 0.73508 0.57570 0.00000
O224 O 0.93242 0.71114 0.48973 0.00000
O225 O 0.94074 0.66799 0.52280 0.00000
O226 O 0.89917 0.62826 0.47043 0.00000
O227 O 0.84858 0.62167 0.47696 0.00000
C228 C 0.81238 0.74858 0.51472 0.00000
C229 C 0.87321 0.62388 0.57248 0.00000
C230 C 0.95119 0.69032 0.50413 0.00000
O231 O 0.86205 0.65291 0.57857 0.00000
O232 O 0.88868 0.61483 0.54644 0.00000
O233 O 0.86423 0.68564 0.50972 0.00000
O234 O 0.90066 0.74330 0.54876 0.00000
O235 O 0.85871 0.71894 0.57767 0.00000
O236 O 0.80307 0.72232 0.52961 0.00000
O237 O 0.83915 0.75458 0.50283 0.00000
H238 H 0.84899 0.63846 0.48939 0.00000
C239 C 0.87172 0.62414 0.45503 0.00000
Zn240 Zn 0.10442 0.35034 0.51425 0.00000
Zn241 Zn 0.16804 0.31241 0.55052 0.00000
Zn242 Zn 0.11505 0.26899 0.50429 0.00000
C243 C 0.11406 0.26492 0.57570 0.00000
O244 O 0.06758 0.28886 0.48973 0.00000
O245 O 0.05926 0.33201 0.52280 0.00000
O246 O 0.10083 0.37174 0.47043 0.00000
O247 O 0.15142 0.37833 0.47696 0.00000
C248 C 0.18762 0.25142 0.51472 0.00000
C249 C 0.12679 0.37612 0.57248 0.00000
C250 C 0.04881 0.30968 0.50413 0.00000
O251 O 0.13795 0.34709 0.57857 0.00000
O252 O 0.11132 0.38517 0.54644 0.00000
O253 O 0.13577 0.31436 0.50972 0.00000
O254 O 0.09934 0.25670 0.54876 0.00000
O255 O 0.14129 0.28106 0.57767 0.00000
O256 O 0.19693 0.27768 0.52961 0.00000
O257 O 0.16085 0.24542 0.50283 0.00000
H258 H 0.15101 0.36154 0.48939 0.00000
C259 C 0.12828 0.37586 0.45503 0.00000
Zn260 Zn 0.35034 0.10442 0.48575 0.00000
Zn261 Zn 0.31241 0.16804 0.44948 0.00000
Zn262 Zn 0.26898 0.11505 0.49571 0.00000
C263 C 0.26492 0.11406 0.42430 0.00000
O264 O 0.28886 0.06758 0.51027 0.00000
O265 O 0.33201 0.05926 0.47720 0.00000
O266 O 0.37174 0.10083 0.52957 0.00000
O267 O 0.37833 0.15142 0.52304 0.00000
C268 C 0.25142 0.18762 0.48528 0.00000
C269 C 0.37612 0.12679 0.42752 0.00000
C270 C 0.30968 0.04881 0.49587 0.00000
O271 O 0.34709 0.13795 0.42143 0.00000
O272 O 0.38517 0.11132 0.45356 0.00000
O273 O 0.31436 0.13577 0.49028 0.00000
O274 O 0.25670 0.09934 0.45124 0.00000
O275 O 0.28106 0.14129 0.42233 0.00000
O276 O 0.27768 0.19693 0.47039 0.00000
O277 O 0.24542 0.16085 0.49717 0.00000
H278 H 0.36154 0.15101 0.51061 0.00000
C279 C 0.37586 0.12828 0.54497 0.00000
Zn280 Zn 0.89558 0.35034 0.48575 0.00000
Zn281 Zn 0.83196 0.31241 0.44948 0.00000
Zn282 Zn 0.88495 0.26898 0.49571 0.00000
C283 C 0.88594 0.26492 0.42430 0.00000
O284 O 0.93242 0.28886 0.51027 0.00000
O285 O 0.94074 0.33201 0.47720 0.00000
O286 O 0.89917 0.37174 0.52957 0.00000
O287 O 0.84858 0.37833 0.52304 0.00000
C288 C 0.81238 0.25142 0.48528 0.00000
C289 C 0.87321 0.37612 0.42752 0.00000
C290 C 0.95119 0.30968 0.49587 0.00000
O291 O 0.86205 0.34709 0.42143 0.00000
O292 O 0.88868 0.38517 0.45356 0.00000
O293 O 0.86424 0.31436 0.49028 0.00000
O294 O 0.90066 0.25670 0.45124 0.00000
O295 O 0.85871 0.28106 0.42233 0.00000
O296 O 0.80307 0.27768 0.47039 0.00000
O297 O 0.83915 0.24542 0.49717 0.00000
H298 H 0.84899 0.36154 0.51061 0.00000
C299 C 0.87172 0.37586 0.54497 0.00000
Zn300 Zn 0.48575 0.64966 0.89558 0.00000
Zn301 Zn 0.44948 0.68759 0.83196 0.00000
Zn302 Zn 0.49571 0.73102 0.88495 0.00000
C303 C 0.42430 0.73508 0.88594 0.00000
O304 O 0.51027 0.71114 0.93242 0.00000
O305 O 0.47720 0.66799 0.94074 0.00000
O306 O 0.52957 0.62826 0.89917 0.00000
O307 O 0.52304 0.62167 0.84858 0.00000
C308 C 0.48528 0.74858 0.81238 0.00000
C309 C 0.42752 0.62388 0.87321 0.00000
C310 C 0.49587 0.69032 0.95119 0.00000
O311 O 0.42143 0.65291 0.86205 0.00000
O312 O 0.45356 0.61483 0.88868 0.00000
O313 O 0.49028 0.68564 0.86424 0.00000
O314 O 0.45124 0.74330 0.90066 0.00000
O315 O 0.42233 0.71894 0.85871 0.00000
O316 O 0.47039 0.72232 0.80307 0.00000
O317 O 0.49717 0.75458 0.83915 0.00000
H318 H 0.51061 0.63846 0.84899 0.00000
C319 C 0.54497 0.62414 0.87172 0.00000
Zn320 Zn 0.51425 0.64966 0.10442 0.00000
Zn321 Zn 0.55052 0.68759 0.16804 0.00000
Zn322 Zn 0.50429 0.73102 0.11505 0.00000
C323 C 0.57570 0.73508 0.11406 0.00000
O324 O 0.48973 0.71114 0.06758 0.00000
O325 O 0.52280 0.66799 0.05926 0.00000
O326 O 0.47043 0.62826 0.10083 0.00000
O327 O 0.47696 0.62167 0.15142 0.00000
C328 C 0.51472 0.74858 0.18762 0.00000
C329 C 0.57248 0.62388 0.12679 0.00000
C330 C 0.50413 0.69032 0.04881 0.00000
O331 O 0.57857 0.65291 0.13795 0.00000
O332 O 0.54644 0.61483 0.11132 0.00000
O333 O 0.50972 0.68564 0.13576 0.00000
O334 O 0.54876 0.74330 0.09934 0.00000
O335 O 0.57767 0.71894 0.14129 0.00000
O336 O 0.52961 0.72232 0.19693 0.00000
O337 O 0.50283 0.75458 0.16085 0.00000
H338 H 0.48939 0.63846 0.15101 0.00000
C339 C 0.45503 0.62414 0.12828 0.00000
Zn340 Zn 0.35034 0.51425 0.10442 0.00000
Zn341 Zn 0.31241 0.55052 0.16804 0.00000
Zn342 Zn 0.26898 0.50429 0.11505 0.00000
C343 C 0.26492 0.57570 0.11406 0.00000
O344 O 0.28886 0.48973 0.06758 0.00000
O345 O 0.33201 0.52280 0.05926 0.00000
O346 O 0.37174 0.47043 0.10083 0.00000
O347 O 0.37833 0.47696 0.15142 0.00000
C348 C 0.25142 0.51472 0.18762 0.00000
C349 C 0.37612 0.57248 0.12679 0.00000
C350 C 0.30968 0.50413 0.04881 0.00000
O351 O 0.34709 0.57857 0.13795 0.00000
O352 O 0.38517 0.54644 0.11132 0.00000
O353 O 0.31436 0.50972 0.13576 0.00000
O354 O 0.25670 0.54876 0.09934 0.00000
O355 O 0.28106 0.57767 0.14129 0.00000
O356 O 0.27768 0.52961 0.19693 0.00000
O357 O 0.24542 0.50283 0.16085 0.00000
H358 H 0.36154 0.48939 0.15101 0.00000
C359 C 0.37586 0.45503 0.12828 0.00000
Zn360 Zn 0.48575 0.35034 0.10442 0.00000
Zn361 Zn 0.44948 0.31241 0.16804 0.00000
Zn362 Zn 0.49571 0.26898 0.11505 0.00000
C363 C 0.42430 0.26492 0.11406 0.00000
O364 O 0.51027 0.28886 0.06758 0.00000
O365 O 0.47720 0.33201 0.05926 0.00000
O366 O 0.52957 0.37174 0.10083 0.00000
O367 O 0.52304 0.37833 0.15142 0.00000
C368 C 0.48528 0.25142 0.18762 0.00000
C369 C 0.42752 0.37612 0.12679 0.00000
C370 C 0.49587 0.30968 0.04881 0.00000
O371 O 0.42143 0.34709 0.13795 0.00000
O372 O 0.45356 0.38517 0.11132 0.00000
O373 O 0.49028 0.31436 0.13576 0.00000
O374 O 0.45124 0.25670 0.09934 0.00000
O375 O 0.42233 0.28106 0.14129 0.00000
O376 O 0.47039 0.27768 0.19693 0.00000
O377 O 0.49717 0.24542 0.16085 0.00000
H378 H 0.51061 0.36154 0.15101 0.00000
C379 C 0.54497 0.37586 0.12828 0.00000
Zn380 Zn 0.35034 0.48575 0.89558 0.00000
Zn381 Zn 0.31241 0.44948 0.83196 0.00000
Zn382 Zn 0.26898 0.49571 0.88495 0.00000
C383 C 0.26492 0.42430 0.88594 0.00000
O384 O 0.28886 0.51027 0.93242 0.00000
O385 O 0.33201 0.47720 0.94074 0.00000
O386 O 0.37174 0.52957 0.89917 0.00000
O387 O 0.37833 0.52304 0.84858 0.00000
C388 C 0.25142 0.48528 0.81238 0.00000
C389 C 0.37612 0.42752 0.87321 0.00000
C390 C 0.30968 0.49587 0.95119 0.00000
O391 O 0.34709 0.42143 0.86205 0.00000
O392 O 0.38517 0.45356 0.88868 0.00000
O393 O 0.31436 0.49028 0.86424 0.00000
O394 O 0.25670 0.45124 0.90066 0.00000
O395 O 0.28106 0.42233 0.85871 0.00000
O396 O 0.27768 0.47039 0.80307 0.00000
O397 O 0.24542 0.49717 0.83915 0.00000
H398 H 0.36154 0.51061 0.84899 0.00000
C399 C 0.37586 0.54497 0.87172 0.00000
Zn400 Zn 0.51425 0.35034 0.89558 0.00000
Zn401 Zn 0.55052 0.31241 0.83196 0.00000
Zn402 Zn 0.50429 0.26898 0.88495 0.00000
C403 C 0.57570 0.26492 0.88594 0.00000
O404 O 0.48973 0.28886 0.93242 0.00000
O405 O 0.52280 0.33201 0.94074 0.00000
O406 O 0.47043 0.37174 0.89917 0.00000
O407 O 0.47696 0.37833 0.84858 0.00000
C408 C 0.51472 0.25142 0.81238 0.00000
C409 C 0.57248 0.37612 0.87321 0.00000
C410 C 0.50413 0.30968 0.95119 0.00000
O411 O 0.57857 0.34709 0.86205 0.00000
O412 O 0.54644 0.38517 0.88868 0.00000
O413 O 0.50972 0.31436 0.86424 0.00000
O414 O 0.54876 0.25670 0.90066 0.00000
O415 O 0.57767 0.28106 0.85871 0.00000
O416 O 0.52961 0.27768 0.80307 0.00000
O417 O 0.50283 0.24542 0.83915 0.00000
H418 H 0.48939 0.36154 0.84899 0.00000
C419 C 0.45503 0.37586 0.87172 0.00000
Zn420 Zn 0.64966 0.89558 0.48575 0.00000
Zn421 Zn 0.68759 0.83196 0.44948 0.00000
Zn422 Zn 0.73102 0.88495 0.49571 0.00000
C423 C 0.73508 0.88594 0.42430 0.00000
O424 O 0.71114 0.93242 0.51027 0.00000
O425 O 0.66799 0.94074 0.47720 0.00000
O426 O 0.62826 0.89917 0.52957 0.00000
O427 O 0.62167 0.84858 0.52304 0.00000
C428 C 0.74858 0.81238 0.48528 0.00000
C429 C 0.62388 0.87321 0.42752 0.00000
C430 C 0.69032 0.95119 0.49587 0.00000
O431 O 0.65291 0.86205 0.42143 0.00000
O432 O 0.61483 0.88868 0.45356 0.00000
O433 O 0.68564 0.86423 0.49028 0.00000
O434 O 0.74330 0.90066 0.45124 0.00000
O435 O 0.71894 0.85871 0.42233 0.00000
O436 O 0.72232 0.80307 0.47039 0.00000
O437 O 0.75458 0.83915 0.49717 0.00000
H438 H 0.63846 0.84899 0.51061 0.00000
C439 C 0.62414 0.87172 0.54497 0.00000
Zn440 Zn 0.10442 0.51425 0.64966 0.00000
Zn441 Zn 0.16804 0.55052 0.68759 0.00000
Zn442 Zn 0.11505 0.50429 0.73101 0.00000
C443 C 0.11406 0.57570 0.73508 0.00000
O444 O 0.06758 0.48973 0.71114 0.00000
O445 O 0.05926 0.52280 0.66799 0.00000
O446 O 0.10083 0.47043 0.62826 0.00000
O447 O 0.15142 0.47696 0.62167 0.00000
C448 C 0.18762 0.51472 0.74858 0.00000
C449 C 0.12679 0.57248 0.62388 0.00000
C450 C 0.04881 0.50413 0.69032 0.00000
O451 O 0.13795 0.57857 0.65291 0.00000
O452 O 0.11132 0.54644 0.61483 0.00000
O453 O 0.13576 0.50972 0.68564 0.00000
O454 O 0.09934 0.54876 0.74330 0.00000
O455 O 0.14129 0.57767 0.71894 0.00000
O456 O 0.19693 0.52961 0.72232 0.00000
O457 O 0.16085 0.50283 0.75458 0.00000
H458 H 0.15101 0.48939 0.63846 0.00000
C459 C 0.12828 0.45503 0.62414 0.00000
Zn460 Zn 0.48575 0.10442 0.64966 0.00000
Zn461 Zn 0.44948 0.16804 0.68759 0.00000
Zn462 Zn 0.49571 0.11505 0.73101 0.00000
C463 C 0.42430 0.11406 0.73508 0.00000
O464 O 0.51027 0.06758 0.71114 0.00000
O465 O 0.47720 0.05926 0.66799 0.00000
O466 O 0.52957 0.10083 0.62826 0.00000
O467 O 0.52304 0.15142 0.62167 0.00000
C468 C 0.48528 0.18762 0.74858 0.00000
C469 C 0.42752 0.12679 0.62388 0.00000
C470 C 0.49587 0.04881 0.69032 0.00000
O471 O 0.42143 0.13795 0.65291 0.00000
O472 O 0.45356 0.11132 0.61483 0.00000
O473 O 0.49028 0.13576 0.68564 0.00000
O474 O 0.45124 0.09934 0.74330 0.00000
O475 O 0.42233 0.14129 0.71894 0.00000
O476 O 0.47039 0.19693 0.72232 0.00000
O477 O 0.49717 0.16085 0.75458 0.00000
H478 H 0.51061 0.15101 0.63846 0.00000
C479 C 0.54497 0.12828 0.62414 0.00000
H480 H 0.92708 0.38596 0.60075 0.00000
H481 H 0.92441 0.35430 0.58173 0.00000
N482 N 0.91574 0.37268 0.58845 0.00000
H483 H 0.86742 0.36393 0.58826 0.00000
H484 H 0.88078 0.43195 0.58177 0.00000
H485 H 0.84529 0.41622 0.58469 0.00000
C486 C 0.88165 0.38127 0.57885 0.00000
C487 C 0.86824 0.41391 0.59161 0.00000
H488 H 0.63193 0.08982 0.38305 0.00000
H489 H 0.60171 0.08409 0.36243 0.00000
N490 N 0.61139 0.09389 0.37881 0.00000
H491 H 0.57474 0.10481 0.40961 0.00000
H492 H 0.62886 0.14768 0.41856 0.00000
H493 H 0.59641 0.14772 0.44006 0.00000
C494 C 0.59281 0.11751 0.39940 0.00000
C495 C 0.61152 0.13367 0.42763 0.00000
H496 H 0.85174 0.64798 0.39082 0.00000
H497 H 0.84275 0.65988 0.42472 0.00000
N498 N 0.85165 0.64514 0.41200 0.00000
H499 H 0.84861 0.60354 0.43789 0.00000
H500 H 0.90065 0.60080 0.39172 0.00000
H501 H 0.88967 0.57154 0.41493 0.00000
C502 C 0.86663 0.61527 0.42651 0.00000
C503 C 0.88173 0.59063 0.40258 0.00000
H504 H 0.42756 0.83793 0.44562 0.00000
H505 H 0.41825 0.85755 0.47562 0.00000
N506 N 0.41729 0.85445 0.45446 0.00000
H507 H 0.40853 0.89916 0.43617 0.00000
H508 H 0.38619 0.84938 0.39293 0.00000
H509 H 0.38524 0.88759 0.38556 0.00000
C510 C 0.39810 0.87734 0.43360 0.00000
C511 C 0.39761 0.87022 0.39676 0.00000
H512 H 0.15779 0.35575 0.39529 0.00000
H513 H 0.16466 0.34625 0.43041 0.00000
N514 N 0.15504 0.35905 0.41621 0.00000
H515 H 0.14847 0.40118 0.44056 0.00000
H516 H 0.10223 0.39437 0.38896 0.00000
H517 H 0.10571 0.42555 0.41201 0.00000
C518 C 0.13395 0.38641 0.42779 0.00000
C519 C 0.11794 0.40773 0.40138 0.00000
H520 H 0.55096 0.55779 0.87151 0.00000
H521 H 0.52754 0.57589 0.89377 0.00000
N522 N 0.54598 0.57515 0.88293 0.00000
H523 H 0.57544 0.60600 0.90723 0.00000
H524 H 0.59529 0.59918 0.84085 0.00000
H525 H 0.61410 0.61995 0.86787 0.00000
C526 C 0.56883 0.60351 0.88395 0.00000
C527 C 0.60062 0.60031 0.86429 0.00000
H528 H 0.60822 0.37287 0.08075 0.00000
H529 H 0.58687 0.34338 0.08757 0.00000
N530 N 0.59336 0.36314 0.09263 0.00000
H531 H 0.58478 0.36659 0.14085 0.00000
H532 H 0.58524 0.42937 0.11073 0.00000
H533 H 0.58130 0.42282 0.14890 0.00000
C534 C 0.57901 0.38014 0.12148 0.00000
C535 C 0.59166 0.41472 0.12872 0.00000
H536 H 0.59824 0.82638 0.37107 0.00000
H537 H 0.63384 0.83207 0.37954 0.00000
N538 N 0.61336 0.83824 0.38041 0.00000
H539 H 0.61573 0.88695 0.38611 0.00000
H540 H 0.55586 0.86152 0.41092 0.00000
H541 H 0.56528 0.89925 0.40937 0.00000
C542 C 0.60435 0.86894 0.39785 0.00000
C543 C 0.56795 0.87805 0.39827 0.00000
H544 H 0.11694 0.62069 0.35482 0.00000
H545 H 0.10605 0.64641 0.37914 0.00000
N546 N 0.11333 0.62671 0.37500 0.00000
H547 H 0.09808 0.59999 0.41327 0.00000
H548 H 0.15426 0.57164 0.38346 0.00000
H549 H 0.13429 0.55610 0.41304 0.00000
C550 C 0.11956 0.60350 0.40239 0.00000
C551 C 0.13231 0.56946 0.39310 0.00000
H552 H 0.38413 0.89178 0.64615 0.00000
H553 H 0.41143 0.88025 0.66835 0.00000
N554 N 0.40336 0.88283 0.64870 0.00000
H555 H 0.42529 0.84790 0.62204 0.00000
H556 H 0.40460 0.90097 0.58200 0.00000
H557 H 0.42094 0.86811 0.56903 0.00000
C558 C 0.42245 0.87195 0.61963 0.00000
C559 C 0.40661 0.87733 0.58604 0.00000
H560 H 0.07080 0.59434 0.59482 0.00000
H561 H 0.07900 0.56225 0.61139 0.00000
N562 N 0.08530 0.58004 0.60129 0.00000
H563 H 0.12821 0.56769 0.58088 0.00000
H564 H 0.12407 0.63640 0.59132 0.00000
H565 H 0.15359 0.61811 0.57373 0.00000
C566 C 0.12074 0.58589 0.59519 0.00000
C567 C 0.12979 0.61765 0.57736 0.00000
H568 H 0.37793 0.07707 0.60546 0.00000
H569 H 0.34744 0.08234 0.58512 0.00000
N570 N 0.36675 0.08889 0.59162 0.00000
H571 H 0.36526 0.13768 0.58633 0.00000
H572 H 0.43067 0.11399 0.58369 0.00000
H573 H 0.42033 0.15149 0.58250 0.00000
C574 C 0.38050 0.12019 0.57902 0.00000
C575 C 0.41449 0.12996 0.59157 0.00000
H576 H 0.37934 0.10950 0.35702 0.00000
H577 H 0.35500 0.09950 0.38307 0.00000
N578 N 0.37399 0.10774 0.37763 0.00000
H579 H 0.40250 0.09898 0.41663 0.00000
H580 H 0.42582 0.15342 0.38002 0.00000
H581 H 0.44341 0.13815 0.41121 0.00000
C582 C 0.39712 0.11876 0.40353 0.00000
C583 C 0.42989 0.13293 0.39198 0.00000
H584 H 0.61761 0.92547 0.60290 0.00000
H585 H 0.64881 0.92162 0.58332 0.00000
N586 N 0.62999 0.91386 0.58991 0.00000
H587 H 0.63559 0.86514 0.58747 0.00000
H588 H 0.56851 0.88312 0.58255 0.00000
H589 H 0.58193 0.84660 0.58367 0.00000
C590 C 0.61910 0.88086 0.57895 0.00000
C591 C 0.58580 0.86902 0.59157 0.00000
H592 H 0.36540 0.61810 0.90668 0.00000
H593 H 0.39493 0.63939 0.91342 0.00000
N594 N 0.38611 0.62245 0.90377 0.00000
H595 H 0.42375 0.59173 0.89670 0.00000
H596 H 0.37269 0.58007 0.85082 0.00000
H597 H 0.40532 0.55907 0.85390 0.00000
C598 C 0.40645 0.60109 0.88238 0.00000
C599 C 0.38918 0.57189 0.86634 0.00000
H600 H 0.56954 0.55314 0.15830 0.00000
H601 H 0.57985 0.52398 0.13793 0.00000
N602 N 0.58086 0.54494 0.14213 0.00000
H603 H 0.59301 0.56523 0.09910 0.00000
H604 H 0.61228 0.60565 0.15242 0.00000
H605 H 0.61603 0.61485 0.11478 0.00000
C606 C 0.60189 0.56658 0.12171 0.00000
C607 C 0.60233 0.60302 0.13066 0.00000
H608 H 0.38426 0.64917 0.11934 0.00000
H609 H 0.41360 0.66847 0.13108 0.00000
N610 N 0.40446 0.64973 0.12628 0.00000
H611 H 0.42899 0.61709 0.15356 0.00000
H612 H 0.40084 0.58701 0.09743 0.00000
H613 H 0.42017 0.56833 0.12559 0.00000
C614 C 0.42339 0.61881 0.12994 0.00000
C615 C 0.40564 0.58698 0.12102 0.00000
H616 H 0.44193 0.44921 0.13032 0.00000
H617 H 0.42430 0.47294 0.10802 0.00000
N618 N 0.42485 0.45431 0.11854 0.00000
H619 H 0.39483 0.42515 0.09287 0.00000
H620 H 0.39998 0.40411 0.15903 0.00000
H621 H 0.38005 0.38570 0.13112 0.00000
C622 C 0.39666 0.43134 0.11632 0.00000
C623 C 0.39951 0.39920 0.13547 0.00000
H624 H 0.39812 0.39508 0.92802 0.00000
H625 H 0.38116 0.42771 0.92369 0.00000
N626 N 0.39280 0.41166 0.91563 0.00000
H627 H 0.41772 0.43227 0.87869 0.00000
H628 H 0.41017 0.36375 0.86892 0.00000
H629 H 0.43036 0.38763 0.84574 0.00000
C630 C 0.40349 0.41265 0.88082 0.00000
C631 C 0.42381 0.38358 0.86856 0.00000
H632 H 0.63521 0.38166 0.90580 0.00000
H633 H 0.60585 0.36020 0.91278 0.00000
N634 N 0.61447 0.37727 0.90317 0.00000
H635 H 0.57662 0.40794 0.89703 0.00000
H636 H 0.62692 0.42026 0.85049 0.00000
H637 H 0.59427 0.44113 0.85431 0.00000
C638 C 0.59373 0.39880 0.88234 0.00000
C639 C 0.61066 0.42822 0.86635 0.00000
H640 H 0.81827 0.41874 0.39337 0.00000
H641 H 0.81594 0.38207 0.39798 0.00000
N642 N 0.82775 0.39986 0.39658 0.00000
H643 H 0.87161 0.38397 0.38126 0.00000
H644 H 0.87719 0.44427 0.41562 0.00000
H645 H 0.90655 0.42557 0.39820 0.00000
C646 C 0.86400 0.39791 0.39970 0.00000
C647 C 0.88295 0.43018 0.39698 0.00000
H648 H 0.14076 0.44474 0.55708 0.00000
H649 H 0.16164 0.41627 0.54593 0.00000
N650 N 0.14814 0.42492 0.56010 0.00000
H651 H 0.15805 0.40138 0.60203 0.00000
H652 H 0.09305 0.42633 0.60184 0.00000
H653 H 0.11004 0.40819 0.63180 0.00000
C654 C 0.13777 0.40581 0.58934 0.00000
C655 C 0.11406 0.42270 0.61302 0.00000
H656 H 0.62037 0.10551 0.64142 0.00000
H657 H 0.64397 0.09613 0.61446 0.00000
N658 N 0.62541 0.10481 0.62067 0.00000
H659 H 0.59613 0.09971 0.58159 0.00000
H660 H 0.57558 0.15271 0.62180 0.00000
H661 H 0.55700 0.14017 0.58997 0.00000
C662 C 0.60250 0.11840 0.59582 0.00000
C663 C 0.57049 0.13320 0.60866 0.00000
H664 H 0.82020 0.58192 0.61751 0.00000
H665 H 0.82483 0.54542 0.62170 0.00000
N666 N 0.83277 0.56466 0.61671 0.00000
H667 H 0.87024 0.55472 0.58658 0.00000
H668 H 0.87896 0.61606 0.61834 0.00000
H669 H 0.90267 0.60124 0.59126 0.00000
C670 C 0.86769 0.56791 0.60687 0.00000
C671 C 0.87974 0.60245 0.59850 0.00000
H672 H 0.99809 0.53238 0.64667 0.00000
H673 H 0.02862 0.54960 0.65861 0.00000
N674 N 0.01353 0.53465 0.66126 0.00000
H675 H 0.01178 0.52785 0.70985 0.00000
H676 H 0.98925 0.47155 0.67565 0.00000
H677 H 0.98934 0.47576 0.71435 0.00000
C678 C 0.01423 0.51312 0.69064 0.00000
C679 C 0.98693 0.48754 0.69348 0.00000
H680 H 0.52666 0.99302 0.25825 0.00000
H681 H 0.53527 0.95859 0.26884 0.00000
N682 N 0.52577 0.97737 0.27277 0.00000
H683 H 0.52476 0.98029 0.32177 0.00000
H684 H 0.47438 0.01889 0.29313 0.00000
H685 H 0.48230 0.01698 0.33120 0.00000
C686 C 0.50809 0.98258 0.30420 0.00000
C687 C 0.49208 0.01614 0.30921 0.00000
H688 H 0.01032 0.54884 0.28132 0.00000
H689 H 0.04355 0.54949 0.29766 0.00000
N690 N 0.02475 0.53984 0.29426 0.00000
H691 H 0.01786 0.51248 0.33444 0.00000
H692 H 0.98296 0.48665 0.28002 0.00000
H693 H 0.98156 0.47260 0.31629 0.00000
C694 C 0.01742 0.50807 0.31052 0.00000
C695 C 0.98395 0.49272 0.30329 0.00000
H696 H 0.66302 0.45234 0.99579 0.00000
H697 H 0.67890 0.44074 0.02717 0.00000
N698 N 0.67642 0.45572 0.01208 0.00000
H699 H 0.71859 0.48085 0.01309 0.00000
H700 H 0.66661 0.51975 0.98794 0.00000
H701 H 0.70383 0.53087 0.99033 0.00000
C702 C 0.69506 0.48695 0.01424 0.00000
C703 C 0.68935 0.51195 0.98685 0.00000
H704 H 0.53464 0.00819 0.73628 0.00000
H705 H 0.54124 0.04230 0.72348 0.00000
N706 N 0.53125 0.02346 0.72172 0.00000
H707 H 0.52188 0.01927 0.67371 0.00000
H708 H 0.47723 0.98154 0.71152 0.00000
H709 H 0.47851 0.98245 0.67263 0.00000
C710 C 0.50847 0.01748 0.69393 0.00000
C711 C 0.49191 0.98383 0.69259 0.00000
H712 H 0.36105 0.99990 0.51681 0.00000
H713 H 0.35353 0.96949 0.53706 0.00000
N714 N 0.34715 0.98479 0.52353 0.00000
H715 H 0.29893 0.98882 0.53185 0.00000
H716 H 0.31534 0.01016 0.46764 0.00000
H717 H 0.27981 0.01182 0.48344 0.00000
C718 C 0.31261 0.98560 0.51198 0.00000
C719 C 0.30336 0.01319 0.48829 0.00000
H720 H 0.00547 0.69332 0.55602 0.00000
H721 H 0.97266 0.71036 0.55813 0.00000
N722 N 0.98824 0.70152 0.54641 0.00000
H723 H 0.98444 0.72365 0.50275 0.00000
H724 H 0.01456 0.66116 0.49684 0.00000
H725 H 0.00945 0.68646 0.46770 0.00000
C726 C 0.98532 0.70048 0.51011 0.00000
C727 C 0.01365 0.68457 0.49134 0.00000
H728 H 0.64106 0.99990 0.52248 0.00000
H729 H 0.65023 0.02979 0.54183 0.00000
N730 N 0.65536 0.01458 0.52768 0.00000
H731 H 0.70426 0.01134 0.53077 0.00000
H732 H 0.68139 0.98969 0.46868 0.00000
H733 H 0.71844 0.98861 0.48057 0.00000
C734 C 0.68848 0.01432 0.51249 0.00000
C735 C 0.69557 0.98687 0.48792 0.00000
H736 H 0.00198 0.26169 0.46712 0.00000
H737 H 0.96730 0.25384 0.47745 0.00000
N738 N 0.98450 0.26654 0.47840 0.00000
H739 H 0.98070 0.28863 0.52208 0.00000
H740 H 0.01839 0.32679 0.47769 0.00000
H741 H 0.01205 0.33560 0.51507 0.00000
C742 C 0.98391 0.29641 0.49925 0.00000
C743 C 0.01501 0.31739 0.49959 0.00000
H744 H 0.44613 0.70466 0.01108 0.00000
H745 H 0.44992 0.68742 0.04364 0.00000
N746 N 0.45826 0.69395 0.02504 0.00000
H747 H 0.49509 0.66257 0.01672 0.00000
H748 H 0.50570 0.72316 0.98411 0.00000
H749 H 0.52869 0.69187 0.98136 0.00000
C750 C 0.49313 0.68681 0.01724 0.00000
C751 C 0.50589 0.69909 0.98416 0.00000
H752 H 0.29784 0.44565 0.01115 0.00000
H753 H 0.31511 0.45022 0.04359 0.00000
N754 N 0.30808 0.45825 0.02504 0.00000
H755 H 0.33774 0.49644 0.01651 0.00000
H756 H 0.27651 0.50433 0.98432 0.00000
H757 H 0.30672 0.52870 0.98136 0.00000
C758 C 0.31361 0.49340 0.01720 0.00000
C759 C 0.30054 0.50560 0.98421 0.00000
H760 H 0.50493 0.36328 0.00371 0.00000
H761 H 0.48300 0.36234 0.03353 0.00000
N762 N 0.49325 0.35217 0.01773 0.00000
H763 H 0.46723 0.31108 0.01104 0.00000
H764 H 0.53309 0.30297 0.98995 0.00000
H765 H 0.50495 0.27630 0.98643 0.00000
C766 C 0.49077 0.31594 0.01482 0.00000
C767 C 0.50946 0.29996 0.98647 0.00000
H768 H 0.74069 0.51492 0.73994 0.00000
H769 H 0.71398 0.50580 0.76392 0.00000
N770 N 0.73476 0.50766 0.75914 0.00000
H771 H 0.75674 0.47475 0.78820 0.00000
H772 H 0.80054 0.52581 0.77025 0.00000
H773 H 0.81003 0.49448 0.79131 0.00000
C774 C 0.75997 0.49846 0.78379 0.00000
C775 C 0.79585 0.50243 0.77354 0.00000
H776 H 0.51738 0.25995 0.25837 0.00000
H777 H 0.50837 0.23656 0.28562 0.00000
N778 N 0.50971 0.24105 0.26474 0.00000
H779 H 0.47518 0.21285 0.24416 0.00000
H780 H 0.52535 0.22868 0.19855 0.00000
H781 H 0.49306 0.20856 0.19031 0.00000
C782 C 0.49890 0.21646 0.24013 0.00000
C783 C 0.50204 0.22620 0.20402 0.00000
H784 H 0.74681 0.47204 0.25833 0.00000
H785 H 0.71722 0.48012 0.23758 0.00000
N786 N 0.73831 0.48127 0.24104 0.00000
H787 H 0.75210 0.52210 0.21750 0.00000
H788 H 0.80520 0.47752 0.22397 0.00000
H789 H 0.80759 0.51319 0.20856 0.00000
C790 C 0.75965 0.49897 0.21740 0.00000
C791 C 0.79635 0.49987 0.22518 0.00000
H792 H 0.44477 0.76876 0.21692 0.00000
H793 H 0.44087 0.78000 0.25199 0.00000
N794 N 0.45334 0.77625 0.23500 0.00000
H795 H 0.49771 0.76790 0.25429 0.00000
H796 H 0.50258 0.79061 0.18865 0.00000
H797 H 0.53258 0.77953 0.21085 0.00000
C798 C 0.48915 0.78268 0.23697 0.00000
C799 C 0.50931 0.77550 0.20614 0.00000
H800 H 0.25151 0.45690 0.24128 0.00000
H801 H 0.23508 0.46177 0.27411 0.00000
N802 N 0.23763 0.46745 0.25363 0.00000
H803 H 0.22466 0.51479 0.25261 0.00000
H804 H 0.21675 0.48510 0.19013 0.00000
H805 H 0.21089 0.52277 0.19798 0.00000
C806 C 0.21825 0.49507 0.23989 0.00000
C807 C 0.22411 0.50350 0.20379 0.00000
H808 H 0.45496 0.76659 0.74717 0.00000
H809 H 0.45554 0.80141 0.73457 0.00000
N810 N 0.46385 0.78602 0.74691 0.00000
H811 H 0.48650 0.81047 0.78296 0.00000
H812 H 0.51445 0.74735 0.77382 0.00000
H813 H 0.52474 0.77265 0.80155 0.00000
C814 C 0.49316 0.79299 0.76740 0.00000
C815 C 0.50625 0.76473 0.78832 0.00000
H816 H 0.17928 0.80909 0.52188 0.00000
H817 H 0.15617 0.79258 0.49812 0.00000
N818 N 0.17588 0.79513 0.50607 0.00000
H819 H 0.20548 0.78192 0.46919 0.00000
H820 H 0.23696 0.77427 0.53082 0.00000
H821 H 0.25366 0.76820 0.49619 0.00000
C822 C 0.20356 0.77563 0.49262 0.00000
C823 C 0.23734 0.78151 0.50787 0.00000
H824 H 0.74067 0.26273 0.49743 0.00000
H825 H 0.76744 0.28665 0.50654 0.00000
N826 N 0.76109 0.26664 0.50234 0.00000
H827 H 0.79333 0.23853 0.52644 0.00000
H828 H 0.76503 0.20424 0.47286 0.00000
H829 H 0.78994 0.18901 0.49860 0.00000
C830 C 0.78516 0.23932 0.50353 0.00000
C831 C 0.77213 0.20498 0.49585 0.00000
H832 H 0.79346 0.81213 0.54281 0.00000
H833 H 0.78144 0.84111 0.52314 0.00000
N834 N 0.78467 0.82004 0.52501 0.00000
H835 H 0.78854 0.80433 0.47866 0.00000
H836 H 0.76769 0.75315 0.52100 0.00000
H837 H 0.77542 0.74914 0.48306 0.00000
C838 C 0.77514 0.79771 0.49785 0.00000
C839 C 0.78158 0.76111 0.50303 0.00000
H840 H 0.18766 0.20623 0.45747 0.00000
H841 H 0.15876 0.21830 0.47723 0.00000
N842 N 0.17983 0.21511 0.47526 0.00000
H843 H 0.19581 0.21153 0.52155 0.00000
H844 H 0.24671 0.23224 0.47879 0.00000
H845 H 0.25095 0.22474 0.51675 0.00000
C846 C 0.20230 0.22484 0.50224 0.00000
C847 C 0.23888 0.21844 0.49689 0.00000
H848 H 0.17876 0.49462 0.81516 0.00000
H849 H 0.15955 0.51899 0.79496 0.00000
N850 N 0.17736 0.50759 0.79824 0.00000
H851 H 0.21250 0.53353 0.77581 0.00000
H852 H 0.22983 0.46625 0.78043 0.00000
H853 H 0.25261 0.49436 0.76607 0.00000
C854 C 0.20524 0.51032 0.77494 0.00000
C855 C 0.23558 0.48954 0.78239 0.00000
H856 H 0.45978 0.25340 0.75587 0.00000
H857 H 0.46551 0.23608 0.72364 0.00000
N858 N 0.47020 0.23872 0.74435 0.00000
H859 H 0.51663 0.22323 0.74821 0.00000
H860 H 0.48320 0.21819 0.80907 0.00000
H861 H 0.52086 0.21014 0.80342 0.00000
C862 C 0.49592 0.21815 0.75993 0.00000
C863 C 0.50269 0.22426 0.79632 0.00000
loop_
_geom_bond_atom_site_label_1
_geom_bond_atom_site_label_2
_geom_bond_distance
_geom_bond_site_symmetry_2
_ccdc_geom_bond_type
Zn0 O5 1.991 . S
Zn0 O6 1.968 . S
Zn0 O12 1.928 . S
Zn0 O13 1.929 . S
Zn1 O11 2.165 . S
Zn1 O13 2.095 . S
Zn1 O15 1.986 . S
Zn1 O16 2.003 . S
Zn2 O4 2.152 . S
Zn2 O13 2.019 . S
Zn2 O14 1.962 . S
Zn2 O17 2.073 . S
C3 O14 1.279 . A
C3 O15 1.276 . A
O4 C10 1.268 . A
O5 C10 1.245 . A
O6 C19 1.278 . A
O7 H18 0.840 . S
O7 C19 1.287 . A
C8 O16 1.272 . A
C8 O17 1.203 . A
C9 O11 1.275 . A
C9 O12 1.272 . A
Zn20 O25 1.991 . S
Zn20 O26 1.968 . S
Zn20 O32 1.928 . S
Zn20 O33 1.929 . S
Zn21 O31 2.165 . S
Zn21 O33 2.095 . S
Zn21 O35 1.986 . S
Zn21 O36 2.003 . S
Zn22 O24 2.152 . S
Zn22 O33 2.019 . S
Zn22 O34 1.962 . S
Zn22 O37 2.073 . S
C23 O34 1.279 . A
C23 O35 1.276 . A
O24 C30 1.268 . A
O25 C30 1.245 . A
O26 C39 1.278 . A
O27 H38 0.840 . S
O27 C39 1.287 . A
C28 O36 1.272 . A
C28 O37 1.203 . A
C29 O31 1.275 . A
C29 O32 1.272 . A
Zn40 O45 1.991 . S
Zn40 O46 1.968 . S
Zn40 O52 1.928 . S
Zn40 O53 1.929 . S
Zn41 O51 2.165 . S
Zn41 O53 2.095 . S
Zn41 O55 1.986 . S
Zn41 O56 2.003 . S
Zn42 O44 2.152 . S
Zn42 O53 2.019 . S
Zn42 O54 1.962 . S
Zn42 O57 2.073 . S
C43 O54 1.279 . A
C43 O55 1.276 . A
O44 C50 1.268 . A
O45 C50 1.245 . A
O46 C59 1.278 . A
O47 H58 0.840 . S
O47 C59 1.287 . A
C48 O56 1.272 . A
C48 O57 1.203 . A
C49 O51 1.275 . A
C49 O52 1.272 . A
Zn60 O65 1.991 . S
Zn60 O66 1.968 . S
Zn60 O72 1.928 . S
Zn60 O73 1.929 . S
Zn61 O71 2.165 . S
Zn61 O73 2.095 . S
Zn61 O75 1.986 . S
Zn61 O76 2.003 . S
Zn62 O64 2.152 . S
Zn62 O73 2.019 . S
Zn62 O74 1.962 . S
Zn62 O77 2.073 . S
C63 O74 1.279 . A
C63 O75 1.276 . A
O64 C70 1.268 . A
O65 C70 1.245 . A
O66 C79 1.278 . A
O67 H78 0.840 . S
O67 C79 1.287 . A
C68 O76 1.272 . A
C68 O77 1.203 . A
C69 O71 1.275 . A
C69 O72 1.272 . A
Zn80 O85 1.991 . S
Zn80 O86 1.968 . S
Zn80 O92 1.928 . S
Zn80 O93 1.929 . S
Zn81 O91 2.165 . S
Zn81 O93 2.095 . S
Zn81 O95 1.986 . S
Zn81 O96 2.003 . S
Zn82 O84 2.152 . S
Zn82 O93 2.019 . S
Zn82 O94 1.962 . S
Zn82 O97 2.073 . S
C83 O94 1.279 . A
C83 O95 1.276 . A
O84 C90 1.268 . A
O85 C90 1.245 . A
O86 C99 1.278 . A
O87 H98 0.840 . S
O87 C99 1.287 . A
C88 O96 1.272 . A
C88 O97 1.203 . A
C89 O91 1.275 . A
C89 O92 1.272 . A
Zn100 O105 1.991 . S
Zn100 O106 1.968 . S
Zn100 O112 1.928 . S
Zn100 O113 1.929 . S
Zn101 O111 2.165 . S
Zn101 O113 2.095 . S
Zn101 O115 1.986 . S
Zn101 O116 2.003 . S
Zn102 O104 2.152 . S
Zn102 O113 2.019 . S
Zn102 O114 1.962 . S
Zn102 O117 2.073 . S
C103 O114 1.279 . A
C103 O115 1.276 . A
O104 C110 1.268 . A
O105 C110 1.245 . A
O106 C119 1.278 . A
O107 H118 0.840 . S
O107 C119 1.287 . A
C108 O116 1.272 . A
C108 O117 1.203 . A
C109 O111 1.275 . A
C109 O112 1.272 . A
Zn120 O125 1.991 . S
Zn120 O126 1.968 . S
Zn120 O132 1.928 . S
Zn120 O133 1.929 . S
Zn121 O131 2.165 . S
Zn121 O133 2.095 . S
Zn121 O135 1.986 . S
Zn121 O136 2.003 . S
Zn122 O124 2.152 . S
Zn122 O133 2.019 . S
Zn122 O134 1.962 . S
Zn122 O137 2.073 . S
C123 O134 1.279 . A
C123 O135 1.276 . A
O124 C130 1.268 . A
O125 C130 1.245 . A
O126 C139 1.278 . A
O127 H138 0.840 . S
O127 C139 1.287 . A
C128 O136 1.272 . A
C128 O137 1.203 . A
C129 O131 1.275 . A
C129 O132 1.272 . A
Zn140 O145 1.991 . S
Zn140 O146 1.968 . S
Zn140 O152 1.928 . S
Zn140 O153 1.929 . S
Zn141 O151 2.165 . S
Zn141 O153 2.095 . S
Zn141 O155 1.986 . S
Zn141 O156 2.003 . S
Zn142 O144 2.152 . S
Zn142 O153 2.019 . S
Zn142 O154 1.962 . S
Zn142 O157 2.073 . S
C143 O154 1.279 . A
C143 O155 1.276 . A
O144 C150 1.268 . A
O145 C150 1.245 . A
O146 C159 1.278 . A
O147 H158 0.840 . S
O147 C159 1.287 . A
C148 O156 1.272 . A
C148 O157 1.203 . A
C149 O151 1.275 . A
C149 O152 1.272 . A
Zn160 O165 1.991 . S
Zn160 O166 1.968 . S
Zn160 O172 1.928 . S
Zn160 O173 1.929 . S
Zn161 O171 2.165 . S
Zn161 O173 2.095 . S
Zn161 O175 1.986 . S
Zn161 O176 2.003 . S
Zn162 O164 2.152 . S
Zn162 O173 2.019 . S
Zn162 O174 1.962 . S
Zn162 O177 2.073 . S
C163 O174 1.279 . A
C163 O175 1.276 . A
O164 C170 1.268 . A
O165 C170 1.245 . A
O166 C179 1.278 . A
O167 H178 0.840 . S
O167 C179 1.287 . A
C168 O176 1.272 . A
C168 O177 1.203 . A
C169 O171 1.275 . A
C169 O172 1.272 . A
Zn180 O185 1.991 . S
Zn180 O186 1.968 . S
Zn180 O192 1.928 . S
Zn180 O193 1.929 . S
Zn181 O191 2.165 . S
Zn181 O193 2.095 . S
Zn181 O195 1.986 . S
Zn181 O196 2.003 . S
Zn182 O184 2.152 . S
Zn182 O193 2.019 . S
Zn182 O194 1.962 . S
Zn182 O197 2.073 . S
C183 O194 1.279 . A
C183 O195 1.276 . A
O184 C190 1.268 . A
O185 C190 1.245 . A
O186 C199 1.278 . A
O187 H198 0.840 . S
O187 C199 1.287 . A
C188 O196 1.272 . A
C188 O197 1.203 . A
C189 O191 1.275 . A
C189 O192 1.272 . A
Zn200 O205 1.991 . S
Zn200 O206 1.968 . S
Zn200 O212 1.928 . S
Zn200 O213 1.929 . S
Zn201 O211 2.165 . S
Zn201 O213 2.095 . S
Zn201 O215 1.986 . S
Zn201 O216 2.003 . S
Zn202 O204 2.152 . S
Zn202 O213 2.019 . S
Zn202 O214 1.962 . S
Zn202 O217 2.073 . S
C203 O214 1.279 . A
C203 O215 1.276 . A
O204 C210 1.268 . A
O205 C210 1.245 . A
O206 C219 1.278 . A
O207 H218 0.840 . S
O207 C219 1.287 . A
C208 O216 1.272 . A
C208 O217 1.203 . A
C209 O211 1.275 . A
C209 O212 1.272 . A
Zn220 O225 1.991 . S
Zn220 O226 1.968 . S
Zn220 O232 1.928 . S
Zn220 O233 1.929 . S
Zn221 O231 2.165 . S
Zn221 O233 2.095 . S
Zn221 O235 1.986 . S
Zn221 O236 2.003 . S
Zn222 O224 2.152 . S
Zn222 O233 2.019 . S
Zn222 O234 1.962 . S
Zn222 O237 2.073 . S
C223 O234 1.279 . A
C223 O235 1.276 . A
O224 C230 1.268 . A
O225 C230 1.245 . A
O226 C239 1.278 . A
O227 H238 0.840 . S
O227 C239 1.287 . A
C228 O236 1.272 . A
C228 O237 1.203 . A
C229 O231 1.275 . A
C229 O232 1.272 . A
Zn240 O245 1.991 . S
Zn240 O246 1.968 . S
Zn240 O252 1.928 . S
Zn240 O253 1.929 . S
Zn241 O251 2.165 . S
Zn241 O253 2.095 . S
Zn241 O255 1.986 . S
Zn241 O256 2.003 . S
Zn242 O244 2.152 . S
Zn242 O253 2.019 . S
Zn242 O254 1.962 . S
Zn242 O257 2.073 . S
C243 O254 1.279 . A
C243 O255 1.276 . A
O244 C250 1.268 . A
O245 C250 1.245 . A
O246 C259 1.278 . A
O247 H258 0.840 . S
O247 C259 1.287 . A
C248 O256 1.272 . A
C248 O257 1.203 . A
C249 O251 1.275 . A
C249 O252 1.272 . A
Zn260 O265 1.991 . S
Zn260 O266 1.968 . S
Zn260 O272 1.928 . S
Zn260 O273 1.929 . S
Zn261 O271 2.165 . S
Zn261 O273 2.095 . S
Zn261 O275 1.986 . S
Zn261 O276 2.003 . S
Zn262 O264 2.152 . S
Zn262 O273 2.019 . S
Zn262 O274 1.962 . S
Zn262 O277 2.073 . S
C263 O274 1.279 . A
C263 O275 1.276 . A
O264 C270 1.268 . A
O265 C270 1.245 . A
O266 C279 1.278 . A
O267 H278 0.840 . S
O267 C279 1.287 . A
C268 O276 1.272 . A
C268 O277 1.203 . A
C269 O271 1.275 . A
C269 O272 1.272 . A
Zn280 O285 1.991 . S
Zn280 O286 1.968 . S
Zn280 O292 1.928 . S
Zn280 O293 1.929 . S
Zn281 O291 2.165 . S
Zn281 O293 2.095 . S
Zn281 O295 1.986 . S
Zn281 O296 2.003 . S
Zn282 O284 2.152 . S
Zn282 O293 2.019 . S
Zn282 O294 1.962 . S
Zn282 O297 2.073 . S
C283 O294 1.279 . A
C283 O295 1.276 . A
O284 C290 1.268 . A
O285 C290 1.245 . A
O286 C299 1.278 . A
O287 H298 0.840 . S
O287 C299 1.287 . A
C288 O296 1.272 . A
C288 O297 1.203 . A
C289 O291 1.275 . A
C289 O292 1.272 . A
Zn300 O305 1.991 . S
Zn300 O306 1.968 . S
Zn300 O312 1.928 . S
Zn300 O313 1.929 . S
Zn301 O311 2.165 . S
Zn301 O313 2.095 . S
Zn301 O315 1.986 . S
Zn301 O316 2.003 . S
Zn302 O304 2.152 . S
Zn302 O313 2.019 . S
Zn302 O314 1.962 . S
Zn302 O317 2.073 . S
C303 O314 1.279 . A
C303 O315 1.276 . A
O304 C310 1.268 . A
O305 C310 1.245 . A
O306 C319 1.278 . A
O307 H318 0.840 . S
O307 C319 1.287 . A
C308 O316 1.272 . A
C308 O317 1.203 . A
C309 O311 1.275 . A
C309 O312 1.272 . A
Zn320 O325 1.991 . S
Zn320 O326 1.968 . S
Zn320 O332 1.928 . S
Zn320 O333 1.929 . S
Zn321 O331 2.165 . S
Zn321 O333 2.095 . S
Zn321 O335 1.986 . S
Zn321 O336 2.003 . S
Zn322 O324 2.152 . S
Zn322 O333 2.019 . S
Zn322 O334 1.962 . S
Zn322 O337 2.073 . S
C323 O334 1.279 . A
C323 O335 1.276 . A
O324 C330 1.268 . A
O325 C330 1.245 . A
O326 C339 1.278 . A
O327 H338 0.840 . S
O327 C339 1.287 . A
C328 O336 1.272 . A
C328 O337 1.203 . A
C329 O331 1.275 . A
C329 O332 1.272 . A
Zn340 O345 1.991 . S
Zn340 O346 1.968 . S
Zn340 O352 1.928 . S
Zn340 O353 1.929 . S
Zn341 O351 2.165 . S
Zn341 O353 2.095 . S
Zn341 O355 1.986 . S
Zn341 O356 2.003 . S
Zn342 O344 2.152 . S
Zn342 O353 2.019 . S
Zn342 O354 1.962 . S
Zn342 O357 2.073 . S
C343 O354 1.279 . A
C343 O355 1.276 . A
O344 C350 1.268 . A
O345 C350 1.245 . A
O346 C359 1.278 . A
O347 H358 0.840 . S
O347 C359 1.287 . A
C348 O356 1.272 . A
C348 O357 1.203 . A
C349 O351 1.275 . A
C349 O352 1.272 . A
Zn360 O365 1.991 . S
Zn360 O366 1.968 . S
Zn360 O372 1.928 . S
Zn360 O373 1.929 . S
Zn361 O371 2.165 . S
Zn361 O373 2.095 . S
Zn361 O375 1.986 . S
Zn361 O376 2.003 . S
Zn362 O364 2.152 . S
Zn362 O373 2.019 . S
Zn362 O374 1.962 . S
Zn362 O377 2.073 . S
C363 O374 1.279 . A
C363 O375 1.276 . A
O364 C370 1.268 . A
O365 C370 1.245 . A
O366 C379 1.278 . A
O367 H378 0.840 . S
O367 C379 1.287 . A
C368 O376 1.272 . A
C368 O377 1.203 . A
C369 O371 1.275 . A
C369 O372 1.272 . A
Zn380 O385 1.991 . S
Zn380 O386 1.968 . S
Zn380 O392 1.928 . S
Zn380 O393 1.929 . S
Zn381 O391 2.165 . S
Zn381 O393 2.095 . S
Zn381 O395 1.986 . S
Zn381 O396 2.003 . S
Zn382 O384 2.152 . S
Zn382 O393 2.019 . S
Zn382 O394 1.962 . S
Zn382 O397 2.073 . S
C383 O394 1.279 . A
C383 O395 1.276 . A
O384 C390 1.268 . A
O385 C390 1.245 . A
O386 C399 1.278 . A
O387 H398 0.840 . S
O387 C399 1.287 . A
C388 O396 1.272 . A
C388 O397 1.203 . A
C389 O391 1.275 . A
C389 O392 1.272 . A
Zn400 O405 1.991 . S
Zn400 O406 1.968 . S
Zn400 O412 1.928 . S
Zn400 O413 1.929 . S
Zn401 O411 2.165 . S
Zn401 O413 2.095 . S
Zn401 O415 1.986 . S
Zn401 O416 2.003 . S
Zn402 O404 2.152 . S
Zn402 O413 2.019 . S
Zn402 O414 1.962 . S
Zn402 O417 2.073 . S
C403 O414 1.279 . A
C403 O415 1.276 . A
O404 C410 1.268 . A
O405 C410 1.245 . A
O406 C419 1.278 . A
O407 H418 0.840 . S
O407 C419 1.287 . A
C408 O416 1.272 . A
C408 O417 1.203 . A
C409 O411 1.275 . A
C409 O412 1.272 . A
Zn420 O425 1.991 . S
Zn420 O426 1.968 . S
Zn420 O432 1.928 . S
Zn420 O433 1.929 . S
Zn421 O431 2.165 . S
Zn421 O433 2.095 . S
Zn421 O435 1.986 . S
Zn421 O436 2.003 . S
Zn422 O424 2.152 . S
Zn422 O433 2.019 . S
Zn422 O434 1.962 . S
Zn422 O437 2.073 . S
C423 O434 1.279 . A
C423 O435 1.276 . A
O424 C430 1.268 . A
O425 C430 1.245 . A
O426 C439 1.278 . A
O427 H438 0.840 . S
O427 C439 1.287 . A
C428 O436 1.272 . A
C428 O437 1.203 . A
C429 O431 1.275 . A
C429 O432 1.272 . A
Zn440 O445 1.991 . S
Zn440 O446 1.968 . S
Zn440 O452 1.928 . S
Zn440 O453 1.929 . S
Zn441 O451 2.165 . S
Zn441 O453 2.095 . S
Zn441 O455 1.986 . S
Zn441 O456 2.003 . S
Zn442 O444 2.152 . S
Zn442 O453 2.019 . S
Zn442 O454 1.962 . S
Zn442 O457 2.073 . S
C443 O454 1.279 . A
C443 O455 1.276 . A
O444 C450 1.268 . A
O445 C450 1.245 . A
O446 C459 1.278 . A
O447 H458 0.840 . S
O447 C459 1.287 . A
C448 O456 1.272 . A
C448 O457 1.203 . A
C449 O451 1.275 . A
C449 O452 1.272 . A
Zn460 O465 1.991 . S
Zn460 O466 1.968 . S
Zn460 O472 1.928 . S
Zn460 O473 1.929 . S
Zn461 O471 2.165 . S
Zn461 O473 2.095 . S
Zn461 O475 1.986 . S
Zn461 O476 2.003 . S
Zn462 O464 2.152 . S
Zn462 O473 2.019 . S
Zn462 O474 1.962 . S
Zn462 O477 2.073 . S
C463 O474 1.279 . A
C463 O475 1.276 . A
O464 C470 1.268 . A
O465 C470 1.245 . A
O466 C479 1.278 . A
O467 H478 0.840 . S
O467 C479 1.287 . A
C468 O476 1.272 . A
C468 O477 1.203 . A
C469 O471 1.275 . A
C469 O472 1.272 . A
H480 N482 0.860 . S
H481 N482 0.861 . S
N482 C486 1.466 . S
H483 C486 0.979 . S
H484 C487 0.969 . S
H485 C487 0.969 . S
C486 C487 1.510 . S
H488 N490 0.860 . S
H489 N490 0.861 . S
N490 C494 1.466 . S
H491 C494 0.979 . S
H492 C495 0.969 . S
H493 C495 0.969 . S
C494 C495 1.510 . S
H496 N498 0.860 . S
H497 N498 0.861 . S
N498 C502 1.466 . S
H499 C502 0.979 . S
H500 C503 0.969 . S
H501 C503 0.969 . S
C502 C503 1.510 . S
H504 N506 0.860 . S
H505 N506 0.861 . S
N506 C510 1.466 . S
H507 C510 0.979 . S
H508 C511 0.969 . S
H509 C511 0.969 . S
C510 C511 1.510 . S
H512 N514 0.860 . S
H513 N514 0.861 . S
N514 C518 1.466 . S
H515 C518 0.979 . S
H516 C519 0.969 . S
H517 C519 0.969 . S
C518 C519 1.510 . S
H520 N522 0.860 . S
H521 N522 0.861 . S
N522 C526 1.466 . S
H523 C526 0.979 . S
H524 C527 0.969 . S
H525 C527 0.969 . S
C526 C527 1.510 . S
H528 N530 0.860 . S
H529 N530 0.861 . S
N530 C534 1.466 . S
H531 C534 0.979 . S
H532 C535 0.969 . S
H533 C535 0.969 . S
C534 C535 1.510 . S
H536 N538 0.860 . S
H537 N538 0.861 . S
N538 C542 1.466 . S
H539 C542 0.979 . S
H540 C543 0.969 . S
H541 C543 0.969 . S
C542 C543 1.510 . S
H544 N546 0.860 . S
H545 N546 0.861 . S
N546 C550 1.466 . S
H547 C550 0.979 . S
H548 C551 0.969 . S
H549 C551 0.969 . S
C550 C551 1.510 . S
H552 N554 0.860 . S
H553 N554 0.861 . S
N554 C558 1.466 . S
H555 C558 0.979 . S
H556 C559 0.969 . S
H557 C559 0.969 . S
C558 C559 1.510 . S
H560 N562 0.860 . S
H561 N562 0.861 . S
N562 C566 1.466 . S
H563 C566 0.979 . S
H564 C567 0.969 . S
H565 C567 0.969 . S
C566 C567 1.510 . S
H568 N570 0.860 . S
H569 N570 0.861 . S
N570 C574 1.466 . S
H571 C574 0.979 . S
H572 C575 0.969 . S
H573 C575 0.969 . S
C574 C575 1.510 . S
H576 N578 0.860 . S
H577 N578 0.861 . S
N578 C582 1.466 . S
H579 C582 0.979 . S
H580 C583 0.969 . S
H581 C583 0.969 . S
C582 C583 1.510 . S
H584 N586 0.860 . S
H585 N586 0.861 . S
N586 C590 1.466 . S
H587 C590 0.979 . S
H588 C591 0.969 . S
H589 C591 0.969 . S
C590 C591 1.510 . S
H592 N594 0.860 . S
H593 N594 0.861 . S
N594 C598 1.466 . S
H595 C598 0.979 . S
H596 C599 0.969 . S
H597 C599 0.969 . S
C598 C599 1.510 . S
H600 N602 0.860 . S
H601 N602 0.861 . S
N602 C606 1.466 . S
H603 C606 0.979 . S
H604 C607 0.969 . S
H605 C607 0.969 . S
C606 C607 1.510 . S
H608 N610 0.860 . S
H609 N610 0.861 . S
N610 C614 1.466 . S
H611 C614 0.979 . S
H612 C615 0.969 . S
H613 C615 0.969 . S
C614 C615 1.510 . S
H616 N618 0.860 . S
H617 N618 0.861 . S
N618 C622 1.466 . S
H619 C622 0.979 . S
H620 C623 0.969 . S
H621 C623 0.969 . S
C622 C623 1.510 . S
H624 N626 0.860 . S
H625 N626 0.861 . S
N626 C630 1.466 . S
H627 C630 0.979 . S
H628 C631 0.969 . S
H629 C631 0.969 . S
C630 C631 1.510 . S
H632 N634 0.860 . S
H633 N634 0.861 . S
N634 C638 1.466 . S
H635 C638 0.979 . S
H636 C639 0.969 . S
H637 C639 0.969 . S
C638 C639 1.510 . S
H640 N642 0.860 . S
H641 N642 0.861 . S
N642 C646 1.466 . S
H643 C646 0.979 . S
H644 C647 0.969 . S
H645 C647 0.969 . S
C646 C647 1.510 . S
H648 N650 0.860 . S
H649 N650 0.861 . S
N650 C654 1.466 . S
H651 C654 0.979 . S
H652 C655 0.969 . S
H653 C655 0.969 . S
C654 C655 1.510 . S
H656 N658 0.860 . S
H657 N658 0.861 . S
N658 C662 1.466 . S
H659 C662 0.979 . S
H660 C663 0.969 . S
H661 C663 0.969 . S
C662 C663 1.510 . S
H664 N666 0.860 . S
H665 N666 0.861 . S
N666 C670 1.466 . S
H667 C670 0.979 . S
H668 C671 0.969 . S
H669 C671 0.969 . S
C670 C671 1.510 . S
H672 N674 0.860 1_655 S
H673 N674 0.861 . S
N674 C678 1.466 . S
H675 C678 0.979 . S
H676 C679 0.969 . S
H677 C679 0.969 . S
C678 C679 1.510 1_455 S
H680 N682 0.860 . S
H681 N682 0.861 . S
N682 C686 1.466 . S
H683 C686 0.979 . S
H684 C687 0.969 . S
H685 C687 0.969 . S
C686 C687 1.510 1_565 S
H688 N690 0.860 . S
H689 N690 0.861 . S
N690 C694 1.466 . S
H691 C694 0.979 . S
H692 C695 0.969 . S
H693 C695 0.969 . S
C694 C695 1.510 1_455 S
H696 N698 0.860 1_556 S
H697 N698 0.861 . S
N698 C702 1.466 . S
H699 C702 0.979 . S
H700 C703 0.969 . S
H701 C703 0.969 . S
C702 C703 1.510 1_554 S
H704 N706 0.860 . S
H705 N706 0.861 . S
N706 C710 1.466 . S
H707 C710 0.979 . S
H708 C711 0.969 . S
H709 C711 0.969 . S
C710 C711 1.510 1_545 S
H712 N714 0.869 . S
H713 N714 0.861 . S
N714 C718 1.466 . S
H715 C718 0.979 . S
H716 C719 0.969 . S
H717 C719 0.969 . S
C718 C719 1.510 1_565 S
H720 N722 0.860 1_455 S
H721 N722 0.861 . S
N722 C726 1.466 . S
H723 C726 0.979 . S
H724 C727 0.969 . S
H725 C727 0.969 . S
C726 C727 1.510 1_655 S
H728 N730 0.851 1_565 S
H729 N730 0.861 . S
N730 C734 1.466 . S
H731 C734 0.979 . S
H732 C735 0.969 . S
H733 C735 0.969 . S
C734 C735 1.510 1_545 S
H736 N738 0.860 1_455 S
H737 N738 0.861 . S
N738 C742 1.466 . S
H739 C742 0.979 . S
H740 C743 0.969 . S
H741 C743 0.969 . S
C742 C743 1.510 1_655 S
H744 N746 0.860 . S
H745 N746 0.861 . S
N746 C750 1.466 . S
H747 C750 0.979 . S
H748 C751 0.969 . S
H749 C751 0.969 . S
C750 C751 1.510 1_554 S
H752 N754 0.860 . S
H753 N754 0.861 . S
N754 C758 1.466 . S
H755 C758 0.979 . S
H756 C759 0.969 . S
H757 C759 0.969 . S
C758 C759 1.510 1_554 S
H760 N762 0.860 . S
H761 N762 0.861 . S
N762 C766 1.466 . S
H763 C766 0.979 . S
H764 C767 0.969 . S
H765 C767 0.969 . S
C766 C767 1.510 1_554 S
H768 N770 0.860 . S
H769 N770 0.861 . S
N770 C774 1.466 . S
H771 C774 0.979 . S
H772 C775 0.969 . S
H773 C775 0.969 . S
C774 C775 1.510 . S
H776 N778 0.860 . S
H777 N778 0.861 . S
N778 C782 1.466 . S
H779 C782 0.979 . S
H780 C783 0.969 . S
H781 C783 0.969 . S
C782 C783 1.510 . S
H784 N786 0.860 . S
H785 N786 0.861 . S
N786 C790 1.466 . S
H787 C790 0.979 . S
H788 C791 0.969 . S
H789 C791 0.969 . S
C790 C791 1.510 . S
H792 N794 0.860 . S
H793 N794 0.861 . S
N794 C798 1.466 . S
H795 C798 0.979 . S
H796 C799 0.969 . S
H797 C799 0.969 . S
C798 C799 1.510 . S
H800 N802 0.860 . S
H801 N802 0.861 . S
N802 C806 1.466 . S
H803 C806 0.979 . S
H804 C807 0.969 . S
H805 C807 0.969 . S
C806 C807 1.510 . S
H808 N810 0.860 . S
H809 N810 0.861 . S
N810 C814 1.466 . S
H811 C814 0.979 . S
H812 C815 0.969 . S
H813 C815 0.969 . S
C814 C815 1.510 . S
H816 N818 0.860 . S
H817 N818 0.861 . S
N818 C822 1.466 . S
H819 C822 0.979 . S
H820 C823 0.969 . S
H821 C823 0.969 . S
C822 C823 1.510 . S
H824 N826 0.860 . S
H825 N826 0.861 . S
N826 C830 1.466 . S
H827 C830 0.979 . S
H828 C831 0.969 . S
H829 C831 0.969 . S
C830 C831 1.510 . S
H832 N834 0.860 . S
H833 N834 0.861 . S
N834 C838 1.466 . S
H835 C838 0.979 . S
H836 C839 0.969 . S
H837 C839 0.969 . S
C838 C839 1.510 . S
H840 N842 0.860 . S
H841 N842 0.861 . S
N842 C846 1.466 . S
H843 C846 0.979 . S
H844 C847 0.969 . S
H845 C847 0.969 . S
C846 C847 1.510 . S
H848 N850 0.860 . S
H849 N850 0.861 . S
N850 C854 1.466 . S
H851 C854 0.979 . S
H852 C855 0.969 . S
H853 C855 0.969 . S
C854 C855 1.510 . S
H856 N858 0.860 . S
H857 N858 0.861 . S
N858 C862 1.466 . S
H859 C862 0.979 . S
H860 C863 0.969 . S
H861 C863 0.969 . S
C862 C863 1.510 . S
C486 C299 1.438 . S
C487 C9 1.424 . S
C494 C29 1.299 . S
C495 C219 1.233 . S
C502 C239 1.219 . S
C503 C49 1.336 . S
C510 C179 1.263 . S
C511 C69 1.467 . S
C518 C259 1.198 . S
C519 C89 1.340 . S
C526 C319 1.361 . S
C527 C109 1.503 . S
C534 C379 1.407 . S
C535 C129 1.397 . S
C542 C429 1.440 . S
C543 C79 1.317 . S
C550 C189 1.334 . S
C551 C99 1.216 . S
C558 C159 1.324 . S
C559 C169 1.353 . S
C566 C449 1.298 . S
C567 C199 1.331 . S
C574 C279 1.421 . S
C575 C469 1.408 . S
C582 C269 1.323 . S
C583 C39 1.216 . S
C590 C439 1.431 . S
C591 C149 1.417 . S
C598 C309 1.302 . S
C599 C399 1.228 . S
C606 C139 1.276 . S
C607 C329 1.474 . S
C614 C339 1.293 . S
C615 C349 1.344 . S
C622 C359 1.357 . S
C623 C369 1.502 . S
C630 C389 1.291 . S
C631 C419 1.300 . S
C638 C409 1.303 . S
C639 C119 1.227 . S
C646 C289 1.470 . S
C647 C59 1.388 . S
C654 C249 1.444 . S
C655 C459 1.490 . S
C662 C209 1.318 . S
C663 C479 1.217 . S
C670 C19 1.167 . S
C671 C229 1.382 . S
C678 C450 1.438 . S
C679 C10 1.482 . S
C686 C70 1.373 . S
C687 C30 1.401 . S
C694 C90 1.356 . S
C695 C50 1.420 . S
C702 C130 1.450 . S
C703 C110 1.470 . S
C710 C470 1.367 . S
C711 C150 1.406 . S
C718 C170 1.425 . S
C719 C270 1.488 . S
C726 C230 1.453 . S
C727 C190 1.446 . S
C734 C210 1.430 . S
C735 C430 1.486 . S
C742 C290 1.427 . S
C743 C250 1.407 . S
C750 C330 1.353 . S
C751 C310 1.431 . S
C758 C350 1.353 . S
C759 C390 1.433 . S
C766 C370 1.406 . S
C767 C410 1.488 . S
C774 C108 1.401 . S
C775 C8 1.388 . S
C782 C28 1.400 . S
C783 C368 1.386 . S
C790 C128 1.392 . S
C791 C48 1.374 . S
C798 C68 1.338 . S
C799 C328 1.333 . S
C806 C88 1.375 . S
C807 C348 1.355 . S
C814 C148 1.391 . S
C815 C308 1.439 . S
C822 C188 1.297 . S
C823 C168 1.393 . S
C830 C288 1.406 . S
C831 C208 1.401 . S
C838 C428 1.321 . S
C839 C228 1.418 . S
C846 C248 1.321 . S
C847 C268 1.418 . S
C854 C448 1.288 . S
C855 C388 1.375 . S
C862 C468 1.379 . S
C863 C408 1.359 . S
