# Generated by pormake.
# Topology lta, (4)-cn, num edge types: 1
# Building blocks:
#     Node 0, Type 0, BuildingBlock: N599, # of connection points: 7
#     Node 1, Type 0, BuildingBlock: N599, # of connection points: 7
#     Node 2, Type 0, BuildingBlock: N599, # of connection points: 7
#     Node 3, Type 0, BuildingBlock: N599, # of connection points: 7
#     Node 4, Type 0, BuildingBlock: N599, # of connection points: 7
#     Node 5, Type 0, BuildingBlock: N599, # of connection points: 7
#     Node 6, Type 0, BuildingBlock: N599, # of connection points: 7
#     Node 7, Type 0, BuildingBlock: N599, # of connection points: 7
#     Node 8, Type 0, BuildingBlock: N599, # of connection points: 7
#     Node 9, Type 0, BuildingBlock: N599, # of connection points: 7
#     Node 10, Type 0, BuildingBlock: N599, # of connection points: 7
#     Node 11, Type 0, BuildingBlock: N599, # of connection points: 7
#     Node 12, Type 0, BuildingBlock: N599, # of connection points: 7
#     Node 13, Type 0, BuildingBlock: N599, # of connection points: 7
#     Node 14, Type 0, BuildingBlock: N599, # of connection points: 7
#     Node 15, Type 0, BuildingBlock: N599, # of connection points: 7
#     Node 16, Type 0, BuildingBlock: N599, # of connection points: 7
#     Node 17, Type 0, BuildingBlock: N599, # of connection points: 7
#     Node 18, Type 0, BuildingBlock: N599, # of connection points: 7
#     Node 19, Type 0, BuildingBlock: N599, # of connection points: 7
#     Node 20, Type 0, BuildingBlock: N599, # of connection points: 7
#     Node 21, Type 0, BuildingBlock: N599, # of connection points: 7
#     Node 22, Type 0, BuildingBlock: N599, # of connection points: 7
#     Node 23, Type 0, BuildingBlock: N599, # of connection points: 7
#     Edge 24, Type (0, 0), BuildingBlock: E201, # of connection points: 2
#     Edge 25, Type (0, 0), BuildingBlock: E201, # of connection points: 2
#     Edge 26, Type (0, 0), BuildingBlock: E201, # of connection points: 2
#     Edge 27, Type (0, 0), BuildingBlock: E201, # of connection points: 2
#     Edge 28, Type (0, 0), BuildingBlock: E201, # of connection points: 2
#     Edge 29, Type (0, 0), BuildingBlock: E201, # of connection points: 2
#     Edge 30, Type (0, 0), BuildingBlock: E201, # of connection points: 2
#     Edge 31, Type (0, 0), BuildingBlock: E201, # of connection points: 2
#     Edge 32, Type (0, 0), BuildingBlock: E201, # of connection points: 2
#     Edge 33, Type (0, 0), BuildingBlock: E201, # of connection points: 2
#     Edge 34, Type (0, 0), BuildingBlock: E201, # of connection points: 2
#     Edge 35, Type (0, 0), BuildingBlock: E201, # of connection points: 2
#     Edge 36, Type (0, 0), BuildingBlock: E201, # of connection points: 2
#     Edge 37, Type (0, 0), BuildingBlock: E201, # of connection points: 2
#     Edge 38, Type (0, 0), BuildingBlock: E201, # of connection points: 2
#     Edge 39, Type (0, 0), BuildingBlock: E201, # of connection points: 2
#     Edge 40, Type (0, 0), BuildingBlock: E201, # of connection points: 2
#     Edge 41, Type (0, 0), BuildingBlock: E201, # of connection points: 2
#     Edge 42, Type (0, 0), BuildingBlock: E201, # of connection points: 2
#     Edge 43, Type (0, 0), BuildingBlock: E201, # of connection points: 2
#     Edge 44, Type (0, 0), BuildingBlock: E201, # of connection points: 2
#     Edge 45, Type (0, 0), BuildingBlock: E201, # of connection points: 2
#     Edge 46, Type (0, 0), BuildingBlock: E201, # of connection points: 2
#     Edge 47, Type (0, 0), BuildingBlock: E201, # of connection points: 2
#     Edge 48, Type (0, 0), BuildingBlock: E201, # of connection points: 2
#     Edge 49, Type (0, 0), BuildingBlock: E201, # of connection points: 2
#     Edge 50, Type (0, 0), BuildingBlock: E201, # of connection points: 2
#     Edge 51, Type (0, 0), BuildingBlock: E201, # of connection points: 2
#     Edge 52, Type (0, 0), BuildingBlock: E201, # of connection points: 2
#     Edge 53, Type (0, 0), BuildingBlock: E201, # of connection points: 2
#     Edge 54, Type (0, 0), BuildingBlock: E201, # of connection points: 2
#     Edge 55, Type (0, 0), BuildingBlock: E201, # of connection points: 2
#     Edge 56, Type (0, 0), BuildingBlock: E201, # of connection points: 2
#     Edge 57, Type (0, 0), BuildingBlock: E201, # of connection points: 2
#     Edge 58, Type (0, 0), BuildingBlock: E201, # of connection points: 2
#     Edge 59, Type (0, 0), BuildingBlock: E201, # of connection points: 2
#     Edge 60, Type (0, 0), BuildingBlock: E201, # of connection points: 2
#     Edge 61, Type (0, 0), BuildingBlock: E201, # of connection points: 2
#     Edge 62, Type (0, 0), BuildingBlock: E201, # of connection points: 2
#     Edge 63, Type (0, 0), BuildingBlock: E201, # of connection points: 2
#     Edge 64, Type (0, 0), BuildingBlock: E201, # of connection points: 2
#     Edge 65, Type (0, 0), BuildingBlock: E201, # of connection points: 2
#     Edge 66, Type (0, 0), BuildingBlock: E201, # of connection points: 2
#     Edge 67, Type (0, 0), BuildingBlock: E201, # of connection points: 2
#     Edge 68, Type (0, 0), BuildingBlock: E201, # of connection points: 2
#     Edge 69, Type (0, 0), BuildingBlock: E201, # of connection points: 2
#     Edge 70, Type (0, 0), BuildingBlock: E201, # of connection points: 2
#     Edge 71, Type (0, 0), BuildingBlock: E201, # of connection points: 2
# Relax obj value: 0.160
# Max RMSD: 0.195
# Mean RMSD: 0.195
data_lta+N599+E201
_symmetry_space_group_name_H-M    P1
_symmetry_Int_Tables_number       1
_symmetry_cell_setting            triclinic
loop_
_symmetry_equiv_pos_as_xyz
'x, y, z'
_cell_length_a     54.476
_cell_length_b     54.476
_cell_length_c     54.476
_cell_angle_alpha  90.000
_cell_angle_beta   90.000
_cell_angle_gamma  90.000
loop_
_atom_site_label
_atom_site_type_symbol
_atom_site_fract_x
_atom_site_fract_y
_atom_site_fract_z
_atom_type_partial_charge
C0 C 0.87369 0.44129 0.71459 0.00000
C1 C 0.93484 0.49911 0.67861 0.00000
Zn2 Zn 0.83302 0.46374 0.68186 0.00000
Zn3 Zn 0.88644 0.48643 0.69267 0.00000
Zn4 Zn 0.85742 0.49169 0.63823 0.00000
Zn5 Zn 0.83888 0.51816 0.68596 0.00000
O6 O 0.81115 0.47162 0.70860 0.00000
O7 O 0.80899 0.51317 0.70440 0.00000
C8 C 0.84829 0.54574 0.64482 0.00000
C9 C 0.80326 0.49273 0.63932 0.00000
C10 C 0.80242 0.49232 0.71402 0.00000
O11 O 0.94210 0.49385 0.70054 0.00000
O12 O 0.91297 0.49574 0.67108 0.00000
O13 O 0.86221 0.53030 0.63723 0.00000
O14 O 0.83338 0.54466 0.66251 0.00000
O15 O 0.85893 0.53519 0.71209 0.00000
O16 O 0.88646 0.50785 0.72136 0.00000
C17 C 0.84334 0.43652 0.63911 0.00000
O18 O 0.85595 0.49023 0.67473 0.00000
O19 O 0.89201 0.45428 0.70755 0.00000
O20 O 0.85251 0.44345 0.70693 0.00000
O21 O 0.82307 0.49688 0.62709 0.00000
O22 O 0.80457 0.48078 0.65841 0.00000
H23 H 0.93048 0.49600 0.71043 0.00000
O24 O 0.85476 0.45333 0.63213 0.00000
O25 O 0.83105 0.43576 0.66026 0.00000
C26 C 0.87672 0.52754 0.72495 0.00000
C27 C 0.55871 0.12631 0.28541 0.00000
C28 C 0.50089 0.06516 0.32139 0.00000
Zn29 Zn 0.53626 0.16698 0.31814 0.00000
Zn30 Zn 0.51357 0.11356 0.30733 0.00000
Zn31 Zn 0.50831 0.14258 0.36177 0.00000
Zn32 Zn 0.48184 0.16112 0.31404 0.00000
O33 O 0.52838 0.18885 0.29140 0.00000
O34 O 0.48683 0.19101 0.29560 0.00000
C35 C 0.45426 0.15171 0.35518 0.00000
C36 C 0.50727 0.19674 0.36068 0.00000
C37 C 0.50768 0.19758 0.28598 0.00000
O38 O 0.50615 0.05790 0.29946 0.00000
O39 O 0.50426 0.08703 0.32892 0.00000
O40 O 0.46970 0.13779 0.36277 0.00000
O41 O 0.45534 0.16662 0.33749 0.00000
O42 O 0.46481 0.14107 0.28791 0.00000
O43 O 0.49215 0.11354 0.27864 0.00000
C44 C 0.56348 0.15666 0.36089 0.00000
O45 O 0.50977 0.14405 0.32527 0.00000
O46 O 0.54572 0.10799 0.29245 0.00000
O47 O 0.55655 0.14749 0.29307 0.00000
O48 O 0.50312 0.17693 0.37291 0.00000
O49 O 0.51922 0.19543 0.34159 0.00000
H50 H 0.50400 0.06952 0.28957 0.00000
O51 O 0.54667 0.14524 0.36787 0.00000
O52 O 0.56424 0.16895 0.33974 0.00000
C53 C 0.47246 0.12328 0.27505 0.00000
C54 C 0.87369 0.55871 0.28541 0.00000
C55 C 0.93484 0.50089 0.32139 0.00000
Zn56 Zn 0.83302 0.53626 0.31814 0.00000
Zn57 Zn 0.88644 0.51357 0.30733 0.00000
Zn58 Zn 0.85742 0.50831 0.36177 0.00000
Zn59 Zn 0.83888 0.48184 0.31404 0.00000
O60 O 0.81115 0.52838 0.29140 0.00000
O61 O 0.80899 0.48683 0.29560 0.00000
C62 C 0.84829 0.45426 0.35518 0.00000
C63 C 0.80326 0.50727 0.36068 0.00000
C64 C 0.80242 0.50768 0.28598 0.00000
O65 O 0.94210 0.50615 0.29946 0.00000
O66 O 0.91297 0.50426 0.32892 0.00000
O67 O 0.86221 0.46970 0.36277 0.00000
O68 O 0.83338 0.45534 0.33749 0.00000
O69 O 0.85893 0.46481 0.28791 0.00000
O70 O 0.88646 0.49215 0.27864 0.00000
C71 C 0.84334 0.56348 0.36089 0.00000
O72 O 0.85595 0.50977 0.32527 0.00000
O73 O 0.89201 0.54572 0.29245 0.00000
O74 O 0.85251 0.55655 0.29307 0.00000
O75 O 0.82307 0.50312 0.37291 0.00000
O76 O 0.80457 0.51922 0.34159 0.00000
H77 H 0.93048 0.50400 0.28957 0.00000
O78 O 0.85476 0.54667 0.36787 0.00000
O79 O 0.83105 0.56424 0.33974 0.00000
C80 C 0.87672 0.47246 0.27505 0.00000
C81 C 0.44129 0.87369 0.28541 0.00000
C82 C 0.49911 0.93484 0.32139 0.00000
Zn83 Zn 0.46374 0.83302 0.31814 0.00000
Zn84 Zn 0.48643 0.88644 0.30733 0.00000
Zn85 Zn 0.49169 0.85742 0.36177 0.00000
Zn86 Zn 0.51816 0.83888 0.31404 0.00000
O87 O 0.47162 0.81115 0.29140 0.00000
O88 O 0.51317 0.80899 0.29560 0.00000
C89 C 0.54574 0.84829 0.35518 0.00000
C90 C 0.49273 0.80326 0.36068 0.00000
C91 C 0.49232 0.80242 0.28598 0.00000
O92 O 0.49385 0.94210 0.29946 0.00000
O93 O 0.49574 0.91297 0.32892 0.00000
O94 O 0.53030 0.86221 0.36277 0.00000
O95 O 0.54466 0.83338 0.33749 0.00000
O96 O 0.53519 0.85893 0.28791 0.00000
O97 O 0.50785 0.88646 0.27864 0.00000
C98 C 0.43652 0.84334 0.36089 0.00000
O99 O 0.49023 0.85595 0.32527 0.00000
O100 O 0.45428 0.89201 0.29245 0.00000
O101 O 0.44345 0.85251 0.29307 0.00000
O102 O 0.49688 0.82307 0.37291 0.00000
O103 O 0.48078 0.80457 0.34159 0.00000
H104 H 0.49600 0.93048 0.28957 0.00000
O105 O 0.45333 0.85476 0.36787 0.00000
O106 O 0.43576 0.83105 0.33974 0.00000
C107 C 0.52754 0.87672 0.27505 0.00000
C108 C 0.12631 0.44129 0.28541 0.00000
C109 C 0.06516 0.49911 0.32139 0.00000
Zn110 Zn 0.16698 0.46374 0.31814 0.00000
Zn111 Zn 0.11356 0.48643 0.30733 0.00000
Zn112 Zn 0.14258 0.49169 0.36177 0.00000
Zn113 Zn 0.16112 0.51816 0.31404 0.00000
O114 O 0.18885 0.47162 0.29140 0.00000
O115 O 0.19101 0.51317 0.29560 0.00000
C116 C 0.15171 0.54574 0.35518 0.00000
C117 C 0.19674 0.49273 0.36068 0.00000
C118 C 0.19758 0.49232 0.28598 0.00000
O119 O 0.05790 0.49385 0.29946 0.00000
O120 O 0.08703 0.49574 0.32892 0.00000
O121 O 0.13779 0.53030 0.36277 0.00000
O122 O 0.16662 0.54466 0.33749 0.00000
O123 O 0.14107 0.53519 0.28791 0.00000
O124 O 0.11354 0.50785 0.27864 0.00000
C125 C 0.15666 0.43652 0.36089 0.00000
O126 O 0.14405 0.49023 0.32527 0.00000
O127 O 0.10799 0.45428 0.29245 0.00000
O128 O 0.14749 0.44345 0.29307 0.00000
O129 O 0.17693 0.49688 0.37291 0.00000
O130 O 0.19543 0.48078 0.34159 0.00000
H131 H 0.06952 0.49600 0.28957 0.00000
O132 O 0.14524 0.45333 0.36787 0.00000
O133 O 0.16895 0.43576 0.33974 0.00000
C134 C 0.12328 0.52754 0.27505 0.00000
C135 C 0.71459 0.55871 0.87369 0.00000
C136 C 0.67861 0.50089 0.93484 0.00000
Zn137 Zn 0.68186 0.53626 0.83302 0.00000
Zn138 Zn 0.69267 0.51357 0.88644 0.00000
Zn139 Zn 0.63823 0.50831 0.85742 0.00000
Zn140 Zn 0.68596 0.48184 0.83888 0.00000
O141 O 0.70860 0.52838 0.81115 0.00000
O142 O 0.70440 0.48683 0.80899 0.00000
C143 C 0.64482 0.45426 0.84829 0.00000
C144 C 0.63932 0.50727 0.80326 0.00000
C145 C 0.71402 0.50768 0.80242 0.00000
O146 O 0.70054 0.50615 0.94210 0.00000
O147 O 0.67108 0.50426 0.91297 0.00000
O148 O 0.63723 0.46970 0.86221 0.00000
O149 O 0.66251 0.45534 0.83338 0.00000
O150 O 0.71209 0.46481 0.85893 0.00000
O151 O 0.72136 0.49215 0.88646 0.00000
C152 C 0.63911 0.56348 0.84334 0.00000
O153 O 0.67473 0.50977 0.85595 0.00000
O154 O 0.70755 0.54572 0.89201 0.00000
O155 O 0.70693 0.55655 0.85251 0.00000
O156 O 0.62709 0.50312 0.82307 0.00000
O157 O 0.65841 0.51922 0.80457 0.00000
H158 H 0.71043 0.50400 0.93048 0.00000
O159 O 0.63213 0.54667 0.85476 0.00000
O160 O 0.66026 0.56424 0.83105 0.00000
C161 C 0.72495 0.47246 0.87672 0.00000
C162 C 0.71459 0.44129 0.12631 0.00000
C163 C 0.67861 0.49911 0.06516 0.00000
Zn164 Zn 0.68186 0.46374 0.16698 0.00000
Zn165 Zn 0.69267 0.48643 0.11356 0.00000
Zn166 Zn 0.63823 0.49169 0.14258 0.00000
Zn167 Zn 0.68596 0.51816 0.16112 0.00000
O168 O 0.70860 0.47162 0.18885 0.00000
O169 O 0.70440 0.51317 0.19101 0.00000
C170 C 0.64482 0.54574 0.15171 0.00000
C171 C 0.63932 0.49273 0.19674 0.00000
C172 C 0.71402 0.49232 0.19758 0.00000
O173 O 0.70054 0.49385 0.05790 0.00000
O174 O 0.67108 0.49574 0.08703 0.00000
O175 O 0.63723 0.53030 0.13779 0.00000
O176 O 0.66251 0.54466 0.16662 0.00000
O177 O 0.71209 0.53519 0.14107 0.00000
O178 O 0.72136 0.50785 0.11354 0.00000
C179 C 0.63911 0.43652 0.15666 0.00000
O180 O 0.67473 0.49023 0.14405 0.00000
O181 O 0.70755 0.45428 0.10799 0.00000
O182 O 0.70693 0.44345 0.14749 0.00000
O183 O 0.62709 0.49688 0.17693 0.00000
O184 O 0.65841 0.48078 0.19543 0.00000
H185 H 0.71043 0.49600 0.06952 0.00000
O186 O 0.63213 0.45333 0.14524 0.00000
O187 O 0.66026 0.43576 0.16895 0.00000
C188 C 0.72495 0.52754 0.12328 0.00000
C189 C 0.55871 0.87369 0.71459 0.00000
C190 C 0.50089 0.93484 0.67861 0.00000
Zn191 Zn 0.53626 0.83302 0.68187 0.00000
Zn192 Zn 0.51357 0.88644 0.69267 0.00000
Zn193 Zn 0.50831 0.85742 0.63823 0.00000
Zn194 Zn 0.48184 0.83888 0.68596 0.00000
O195 O 0.52838 0.81115 0.70860 0.00000
O196 O 0.48683 0.80899 0.70440 0.00000
C197 C 0.45426 0.84829 0.64482 0.00000
C198 C 0.50727 0.80326 0.63932 0.00000
C199 C 0.50768 0.80242 0.71402 0.00000
O200 O 0.50615 0.94210 0.70054 0.00000
O201 O 0.50426 0.91297 0.67108 0.00000
O202 O 0.46970 0.86221 0.63723 0.00000
O203 O 0.45534 0.83338 0.66251 0.00000
O204 O 0.46481 0.85893 0.71209 0.00000
O205 O 0.49215 0.88646 0.72136 0.00000
C206 C 0.56348 0.84334 0.63911 0.00000
O207 O 0.50977 0.85595 0.67473 0.00000
O208 O 0.54572 0.89201 0.70755 0.00000
O209 O 0.55655 0.85251 0.70693 0.00000
O210 O 0.50312 0.82307 0.62709 0.00000
O211 O 0.51922 0.80457 0.65841 0.00000
H212 H 0.50400 0.93048 0.71043 0.00000
O213 O 0.54667 0.85476 0.63213 0.00000
O214 O 0.56424 0.83105 0.66026 0.00000
C215 C 0.47246 0.87672 0.72495 0.00000
C216 C 0.28541 0.87369 0.55871 0.00000
C217 C 0.32139 0.93484 0.50089 0.00000
Zn218 Zn 0.31814 0.83302 0.53626 0.00000
Zn219 Zn 0.30733 0.88644 0.51357 0.00000
Zn220 Zn 0.36177 0.85742 0.50831 0.00000
Zn221 Zn 0.31404 0.83888 0.48184 0.00000
O222 O 0.29140 0.81115 0.52838 0.00000
O223 O 0.29560 0.80899 0.48683 0.00000
C224 C 0.35518 0.84829 0.45426 0.00000
C225 C 0.36068 0.80326 0.50727 0.00000
C226 C 0.28598 0.80242 0.50768 0.00000
O227 O 0.29946 0.94210 0.50615 0.00000
O228 O 0.32892 0.91297 0.50426 0.00000
O229 O 0.36277 0.86221 0.46970 0.00000
O230 O 0.33749 0.83338 0.45534 0.00000
O231 O 0.28791 0.85893 0.46481 0.00000
O232 O 0.27864 0.88646 0.49215 0.00000
C233 C 0.36089 0.84334 0.56348 0.00000
O234 O 0.32527 0.85595 0.50977 0.00000
O235 O 0.29245 0.89201 0.54572 0.00000
O236 O 0.29307 0.85251 0.55655 0.00000
O237 O 0.37291 0.82307 0.50312 0.00000
O238 O 0.34159 0.80457 0.51922 0.00000
H239 H 0.28957 0.93048 0.50400 0.00000
O240 O 0.36787 0.85476 0.54667 0.00000
O241 O 0.33974 0.83105 0.56424 0.00000
C242 C 0.27505 0.87672 0.47246 0.00000
C243 C 0.12631 0.71459 0.44129 0.00000
C244 C 0.06516 0.67861 0.49911 0.00000
Zn245 Zn 0.16698 0.68186 0.46374 0.00000
Zn246 Zn 0.11356 0.69267 0.48643 0.00000
Zn247 Zn 0.14258 0.63823 0.49169 0.00000
Zn248 Zn 0.16112 0.68596 0.51816 0.00000
O249 O 0.18885 0.70860 0.47162 0.00000
O250 O 0.19101 0.70440 0.51317 0.00000
C251 C 0.15171 0.64482 0.54574 0.00000
C252 C 0.19674 0.63932 0.49273 0.00000
C253 C 0.19758 0.71402 0.49232 0.00000
O254 O 0.05790 0.70054 0.49385 0.00000
O255 O 0.08703 0.67108 0.49574 0.00000
O256 O 0.13779 0.63723 0.53030 0.00000
O257 O 0.16662 0.66251 0.54466 0.00000
O258 O 0.14107 0.71209 0.53519 0.00000
O259 O 0.11354 0.72136 0.50785 0.00000
C260 C 0.15666 0.63911 0.43652 0.00000
O261 O 0.14405 0.67473 0.49023 0.00000
O262 O 0.10799 0.70755 0.45428 0.00000
O263 O 0.14749 0.70693 0.44345 0.00000
O264 O 0.17693 0.62709 0.49688 0.00000
O265 O 0.19543 0.65841 0.48078 0.00000
H266 H 0.06952 0.71043 0.49600 0.00000
O267 O 0.14524 0.63213 0.45333 0.00000
O268 O 0.16895 0.66026 0.43576 0.00000
C269 C 0.12328 0.72495 0.52754 0.00000
C270 C 0.71459 0.12631 0.55871 0.00000
C271 C 0.67861 0.06516 0.50089 0.00000
Zn272 Zn 0.68186 0.16698 0.53626 0.00000
Zn273 Zn 0.69267 0.11356 0.51357 0.00000
Zn274 Zn 0.63823 0.14258 0.50831 0.00000
Zn275 Zn 0.68596 0.16112 0.48184 0.00000
O276 O 0.70860 0.18885 0.52838 0.00000
O277 O 0.70440 0.19101 0.48683 0.00000
C278 C 0.64482 0.15171 0.45426 0.00000
C279 C 0.63932 0.19674 0.50727 0.00000
C280 C 0.71402 0.19758 0.50768 0.00000
O281 O 0.70054 0.05790 0.50615 0.00000
O282 O 0.67108 0.08703 0.50426 0.00000
O283 O 0.63723 0.13779 0.46970 0.00000
O284 O 0.66251 0.16662 0.45534 0.00000
O285 O 0.71209 0.14107 0.46481 0.00000
O286 O 0.72136 0.11354 0.49215 0.00000
C287 C 0.63911 0.15666 0.56348 0.00000
O288 O 0.67473 0.14405 0.50977 0.00000
O289 O 0.70755 0.10799 0.54572 0.00000
O290 O 0.70693 0.14749 0.55655 0.00000
O291 O 0.62709 0.17693 0.50312 0.00000
O292 O 0.65841 0.19543 0.51922 0.00000
H293 H 0.71043 0.06952 0.50400 0.00000
O294 O 0.63213 0.14524 0.54667 0.00000
O295 O 0.66026 0.16895 0.56424 0.00000
C296 C 0.72495 0.12328 0.47246 0.00000
C297 C 0.87369 0.71459 0.55871 0.00000
C298 C 0.93484 0.67861 0.50089 0.00000
Zn299 Zn 0.83302 0.68186 0.53626 0.00000
Zn300 Zn 0.88644 0.69267 0.51357 0.00000
Zn301 Zn 0.85742 0.63823 0.50831 0.00000
Zn302 Zn 0.83888 0.68596 0.48184 0.00000
O303 O 0.81115 0.70860 0.52838 0.00000
O304 O 0.80899 0.70440 0.48683 0.00000
C305 C 0.84829 0.64482 0.45426 0.00000
C306 C 0.80326 0.63932 0.50727 0.00000
C307 C 0.80242 0.71402 0.50768 0.00000
O308 O 0.94210 0.70054 0.50615 0.00000
O309 O 0.91297 0.67108 0.50426 0.00000
O310 O 0.86221 0.63723 0.46970 0.00000
O311 O 0.83338 0.66251 0.45534 0.00000
O312 O 0.85893 0.71209 0.46481 0.00000
O313 O 0.88646 0.72136 0.49215 0.00000
C314 C 0.84334 0.63911 0.56348 0.00000
O315 O 0.85595 0.67473 0.50977 0.00000
O316 O 0.89201 0.70755 0.54572 0.00000
O317 O 0.85251 0.70693 0.55655 0.00000
O318 O 0.82307 0.62709 0.50312 0.00000
O319 O 0.80457 0.65841 0.51922 0.00000
H320 H 0.93048 0.71043 0.50400 0.00000
O321 O 0.85476 0.63213 0.54667 0.00000
O322 O 0.83105 0.66026 0.56424 0.00000
C323 C 0.87672 0.72495 0.47246 0.00000
C324 C 0.12631 0.28541 0.55871 0.00000
C325 C 0.06516 0.32139 0.50089 0.00000
Zn326 Zn 0.16698 0.31814 0.53626 0.00000
Zn327 Zn 0.11356 0.30733 0.51357 0.00000
Zn328 Zn 0.14258 0.36177 0.50831 0.00000
Zn329 Zn 0.16112 0.31404 0.48184 0.00000
O330 O 0.18885 0.29140 0.52838 0.00000
O331 O 0.19101 0.29560 0.48683 0.00000
C332 C 0.15171 0.35518 0.45426 0.00000
C333 C 0.19674 0.36068 0.50727 0.00000
C334 C 0.19758 0.28598 0.50768 0.00000
O335 O 0.05790 0.29946 0.50615 0.00000
O336 O 0.08703 0.32892 0.50426 0.00000
O337 O 0.13779 0.36277 0.46970 0.00000
O338 O 0.16662 0.33749 0.45534 0.00000
O339 O 0.14107 0.28791 0.46481 0.00000
O340 O 0.11354 0.27864 0.49215 0.00000
C341 C 0.15666 0.36089 0.56348 0.00000
O342 O 0.14405 0.32527 0.50977 0.00000
O343 O 0.10799 0.29245 0.54572 0.00000
O344 O 0.14749 0.29307 0.55655 0.00000
O345 O 0.17693 0.37291 0.50312 0.00000
O346 O 0.19543 0.34159 0.51922 0.00000
H347 H 0.06952 0.28957 0.50400 0.00000
O348 O 0.14524 0.36787 0.54667 0.00000
O349 O 0.16895 0.33974 0.56424 0.00000
C350 C 0.12328 0.27505 0.47246 0.00000
C351 C 0.28541 0.12631 0.44129 0.00000
C352 C 0.32139 0.06516 0.49911 0.00000
Zn353 Zn 0.31814 0.16698 0.46374 0.00000
Zn354 Zn 0.30733 0.11356 0.48643 0.00000
Zn355 Zn 0.36177 0.14258 0.49169 0.00000
Zn356 Zn 0.31404 0.16112 0.51816 0.00000
O357 O 0.29140 0.18885 0.47162 0.00000
O358 O 0.29560 0.19101 0.51317 0.00000
C359 C 0.35518 0.15171 0.54574 0.00000
C360 C 0.36068 0.19674 0.49273 0.00000
C361 C 0.28598 0.19758 0.49232 0.00000
O362 O 0.29946 0.05790 0.49385 0.00000
O363 O 0.32892 0.08703 0.49574 0.00000
O364 O 0.36277 0.13779 0.53030 0.00000
O365 O 0.33749 0.16662 0.54466 0.00000
O366 O 0.28791 0.14107 0.53519 0.00000
O367 O 0.27864 0.11354 0.50785 0.00000
C368 C 0.36089 0.15666 0.43652 0.00000
O369 O 0.32527 0.14405 0.49023 0.00000
O370 O 0.29245 0.10799 0.45428 0.00000
O371 O 0.29307 0.14749 0.44345 0.00000
O372 O 0.37291 0.17693 0.49688 0.00000
O373 O 0.34159 0.19543 0.48078 0.00000
H374 H 0.28957 0.06952 0.49600 0.00000
O375 O 0.36787 0.14524 0.45333 0.00000
O376 O 0.33974 0.16895 0.43576 0.00000
C377 C 0.27505 0.12328 0.52754 0.00000
C378 C 0.87369 0.28541 0.44129 0.00000
C379 C 0.93484 0.32139 0.49911 0.00000
Zn380 Zn 0.83302 0.31814 0.46374 0.00000
Zn381 Zn 0.88644 0.30733 0.48643 0.00000
Zn382 Zn 0.85742 0.36177 0.49169 0.00000
Zn383 Zn 0.83888 0.31404 0.51816 0.00000
O384 O 0.81115 0.29140 0.47162 0.00000
O385 O 0.80899 0.29560 0.51317 0.00000
C386 C 0.84829 0.35518 0.54574 0.00000
C387 C 0.80326 0.36068 0.49273 0.00000
C388 C 0.80242 0.28598 0.49232 0.00000
O389 O 0.94210 0.29946 0.49385 0.00000
O390 O 0.91297 0.32892 0.49574 0.00000
O391 O 0.86221 0.36277 0.53030 0.00000
O392 O 0.83338 0.33749 0.54466 0.00000
O393 O 0.85893 0.28791 0.53519 0.00000
O394 O 0.88646 0.27864 0.50785 0.00000
C395 C 0.84334 0.36089 0.43652 0.00000
O396 O 0.85595 0.32527 0.49023 0.00000
O397 O 0.89201 0.29245 0.45428 0.00000
O398 O 0.85251 0.29307 0.44345 0.00000
O399 O 0.82307 0.37291 0.49688 0.00000
O400 O 0.80457 0.34159 0.48078 0.00000
H401 H 0.93048 0.28957 0.49600 0.00000
O402 O 0.85476 0.36787 0.45333 0.00000
O403 O 0.83105 0.33974 0.43576 0.00000
C404 C 0.87672 0.27505 0.52754 0.00000
C405 C 0.44129 0.71459 0.87369 0.00000
C406 C 0.49911 0.67861 0.93484 0.00000
Zn407 Zn 0.46374 0.68187 0.83302 0.00000
Zn408 Zn 0.48643 0.69267 0.88644 0.00000
Zn409 Zn 0.49169 0.63823 0.85742 0.00000
Zn410 Zn 0.51816 0.68596 0.83888 0.00000
O411 O 0.47162 0.70860 0.81115 0.00000
O412 O 0.51317 0.70440 0.80899 0.00000
C413 C 0.54574 0.64482 0.84829 0.00000
C414 C 0.49273 0.63932 0.80326 0.00000
C415 C 0.49232 0.71402 0.80242 0.00000
O416 O 0.49385 0.70054 0.94210 0.00000
O417 O 0.49574 0.67108 0.91297 0.00000
O418 O 0.53030 0.63723 0.86221 0.00000
O419 O 0.54466 0.66251 0.83338 0.00000
O420 O 0.53519 0.71209 0.85893 0.00000
O421 O 0.50785 0.72136 0.88646 0.00000
C422 C 0.43652 0.63911 0.84334 0.00000
O423 O 0.49023 0.67473 0.85595 0.00000
O424 O 0.45428 0.70755 0.89201 0.00000
O425 O 0.44345 0.70693 0.85251 0.00000
O426 O 0.49688 0.62709 0.82307 0.00000
O427 O 0.48078 0.65841 0.80457 0.00000
H428 H 0.49600 0.71043 0.93048 0.00000
O429 O 0.45333 0.63213 0.85476 0.00000
O430 O 0.43576 0.66026 0.83105 0.00000
C431 C 0.52754 0.72495 0.87672 0.00000
C432 C 0.55871 0.71459 0.12631 0.00000
C433 C 0.50089 0.67861 0.06516 0.00000
Zn434 Zn 0.53626 0.68187 0.16698 0.00000
Zn435 Zn 0.51357 0.69267 0.11356 0.00000
Zn436 Zn 0.50831 0.63823 0.14258 0.00000
Zn437 Zn 0.48184 0.68596 0.16112 0.00000
O438 O 0.52838 0.70860 0.18885 0.00000
O439 O 0.48683 0.70440 0.19101 0.00000
C440 C 0.45426 0.64482 0.15171 0.00000
C441 C 0.50727 0.63932 0.19674 0.00000
C442 C 0.50768 0.71402 0.19758 0.00000
O443 O 0.50615 0.70054 0.05790 0.00000
O444 O 0.50426 0.67108 0.08703 0.00000
O445 O 0.46970 0.63723 0.13779 0.00000
O446 O 0.45534 0.66251 0.16662 0.00000
O447 O 0.46481 0.71209 0.14107 0.00000
O448 O 0.49215 0.72136 0.11354 0.00000
C449 C 0.56348 0.63911 0.15666 0.00000
O450 O 0.50977 0.67473 0.14405 0.00000
O451 O 0.54572 0.70755 0.10799 0.00000
O452 O 0.55655 0.70693 0.14749 0.00000
O453 O 0.50312 0.62709 0.17693 0.00000
O454 O 0.51922 0.65841 0.19543 0.00000
H455 H 0.50400 0.71043 0.06952 0.00000
O456 O 0.54667 0.63213 0.14524 0.00000
O457 O 0.56424 0.66026 0.16895 0.00000
C458 C 0.47246 0.72495 0.12328 0.00000
C459 C 0.28541 0.55871 0.12631 0.00000
C460 C 0.32139 0.50089 0.06516 0.00000
Zn461 Zn 0.31814 0.53626 0.16698 0.00000
Zn462 Zn 0.30733 0.51357 0.11356 0.00000
Zn463 Zn 0.36177 0.50831 0.14258 0.00000
Zn464 Zn 0.31404 0.48184 0.16112 0.00000
O465 O 0.29140 0.52838 0.18885 0.00000
O466 O 0.29560 0.48683 0.19101 0.00000
C467 C 0.35518 0.45426 0.15171 0.00000
C468 C 0.36068 0.50727 0.19674 0.00000
C469 C 0.28598 0.50768 0.19758 0.00000
O470 O 0.29946 0.50615 0.05790 0.00000
O471 O 0.32892 0.50426 0.08703 0.00000
O472 O 0.36277 0.46970 0.13779 0.00000
O473 O 0.33749 0.45534 0.16662 0.00000
O474 O 0.28791 0.46481 0.14107 0.00000
O475 O 0.27864 0.49215 0.11354 0.00000
C476 C 0.36089 0.56348 0.15666 0.00000
O477 O 0.32527 0.50977 0.14405 0.00000
O478 O 0.29245 0.54572 0.10799 0.00000
O479 O 0.29307 0.55655 0.14749 0.00000
O480 O 0.37291 0.50312 0.17693 0.00000
O481 O 0.34159 0.51922 0.19543 0.00000
H482 H 0.28957 0.50400 0.06952 0.00000
O483 O 0.36787 0.54667 0.14524 0.00000
O484 O 0.33974 0.56424 0.16895 0.00000
C485 C 0.27505 0.47246 0.12328 0.00000
C486 C 0.44129 0.28541 0.12631 0.00000
C487 C 0.49911 0.32139 0.06516 0.00000
Zn488 Zn 0.46374 0.31814 0.16698 0.00000
Zn489 Zn 0.48643 0.30733 0.11356 0.00000
Zn490 Zn 0.49169 0.36177 0.14258 0.00000
Zn491 Zn 0.51816 0.31404 0.16112 0.00000
O492 O 0.47162 0.29140 0.18885 0.00000
O493 O 0.51317 0.29560 0.19101 0.00000
C494 C 0.54574 0.35518 0.15171 0.00000
C495 C 0.49273 0.36068 0.19674 0.00000
C496 C 0.49232 0.28598 0.19758 0.00000
O497 O 0.49385 0.29946 0.05790 0.00000
O498 O 0.49574 0.32892 0.08703 0.00000
O499 O 0.53030 0.36277 0.13779 0.00000
O500 O 0.54466 0.33749 0.16662 0.00000
O501 O 0.53519 0.28791 0.14107 0.00000
O502 O 0.50785 0.27864 0.11354 0.00000
C503 C 0.43652 0.36089 0.15666 0.00000
O504 O 0.49023 0.32527 0.14405 0.00000
O505 O 0.45428 0.29245 0.10799 0.00000
O506 O 0.44345 0.29307 0.14749 0.00000
O507 O 0.49688 0.37291 0.17693 0.00000
O508 O 0.48078 0.34159 0.19543 0.00000
H509 H 0.49600 0.28957 0.06952 0.00000
O510 O 0.45333 0.36787 0.14524 0.00000
O511 O 0.43576 0.33974 0.16895 0.00000
C512 C 0.52754 0.27505 0.12328 0.00000
C513 C 0.28541 0.44129 0.87369 0.00000
C514 C 0.32139 0.49911 0.93484 0.00000
Zn515 Zn 0.31814 0.46374 0.83302 0.00000
Zn516 Zn 0.30733 0.48643 0.88644 0.00000
Zn517 Zn 0.36177 0.49169 0.85742 0.00000
Zn518 Zn 0.31404 0.51816 0.83888 0.00000
O519 O 0.29140 0.47162 0.81115 0.00000
O520 O 0.29560 0.51317 0.80899 0.00000
C521 C 0.35518 0.54574 0.84829 0.00000
C522 C 0.36068 0.49273 0.80326 0.00000
C523 C 0.28598 0.49232 0.80242 0.00000
O524 O 0.29946 0.49385 0.94210 0.00000
O525 O 0.32892 0.49574 0.91297 0.00000
O526 O 0.36277 0.53030 0.86221 0.00000
O527 O 0.33749 0.54466 0.83338 0.00000
O528 O 0.28791 0.53519 0.85893 0.00000
O529 O 0.27864 0.50785 0.88646 0.00000
C530 C 0.36089 0.43652 0.84334 0.00000
O531 O 0.32527 0.49023 0.85595 0.00000
O532 O 0.29245 0.45428 0.89201 0.00000
O533 O 0.29307 0.44345 0.85251 0.00000
O534 O 0.37291 0.49688 0.82307 0.00000
O535 O 0.34159 0.48078 0.80457 0.00000
H536 H 0.28957 0.49600 0.93048 0.00000
O537 O 0.36787 0.45333 0.85476 0.00000
O538 O 0.33974 0.43576 0.83105 0.00000
C539 C 0.27505 0.52754 0.87672 0.00000
C540 C 0.55871 0.28541 0.87369 0.00000
C541 C 0.50089 0.32139 0.93484 0.00000
Zn542 Zn 0.53626 0.31814 0.83302 0.00000
Zn543 Zn 0.51357 0.30733 0.88644 0.00000
Zn544 Zn 0.50831 0.36177 0.85742 0.00000
Zn545 Zn 0.48184 0.31404 0.83888 0.00000
O546 O 0.52838 0.29140 0.81115 0.00000
O547 O 0.48683 0.29560 0.80899 0.00000
C548 C 0.45426 0.35518 0.84829 0.00000
C549 C 0.50727 0.36068 0.80326 0.00000
C550 C 0.50768 0.28598 0.80242 0.00000
O551 O 0.50615 0.29946 0.94210 0.00000
O552 O 0.50426 0.32892 0.91297 0.00000
O553 O 0.46970 0.36277 0.86221 0.00000
O554 O 0.45534 0.33749 0.83338 0.00000
O555 O 0.46481 0.28791 0.85893 0.00000
O556 O 0.49215 0.27864 0.88646 0.00000
C557 C 0.56348 0.36089 0.84334 0.00000
O558 O 0.50977 0.32527 0.85595 0.00000
O559 O 0.54572 0.29245 0.89201 0.00000
O560 O 0.55655 0.29307 0.85251 0.00000
O561 O 0.50312 0.37291 0.82307 0.00000
O562 O 0.51922 0.34159 0.80457 0.00000
H563 H 0.50400 0.28957 0.93048 0.00000
O564 O 0.54667 0.36787 0.85476 0.00000
O565 O 0.56424 0.33974 0.83105 0.00000
C566 C 0.47246 0.27505 0.87672 0.00000
C567 C 0.71459 0.87369 0.44129 0.00000
C568 C 0.67861 0.93484 0.49911 0.00000
Zn569 Zn 0.68186 0.83302 0.46374 0.00000
Zn570 Zn 0.69267 0.88644 0.48643 0.00000
Zn571 Zn 0.63823 0.85742 0.49169 0.00000
Zn572 Zn 0.68596 0.83888 0.51816 0.00000
O573 O 0.70860 0.81115 0.47162 0.00000
O574 O 0.70440 0.80899 0.51317 0.00000
C575 C 0.64482 0.84829 0.54574 0.00000
C576 C 0.63932 0.80326 0.49273 0.00000
C577 C 0.71402 0.80242 0.49232 0.00000
O578 O 0.70054 0.94210 0.49385 0.00000
O579 O 0.67108 0.91297 0.49574 0.00000
O580 O 0.63723 0.86221 0.53030 0.00000
O581 O 0.66251 0.83338 0.54466 0.00000
O582 O 0.71209 0.85893 0.53519 0.00000
O583 O 0.72136 0.88646 0.50785 0.00000
C584 C 0.63911 0.84334 0.43652 0.00000
O585 O 0.67473 0.85595 0.49023 0.00000
O586 O 0.70755 0.89201 0.45428 0.00000
O587 O 0.70693 0.85251 0.44345 0.00000
O588 O 0.62709 0.82307 0.49688 0.00000
O589 O 0.65841 0.80457 0.48078 0.00000
H590 H 0.71043 0.93048 0.49600 0.00000
O591 O 0.63213 0.85476 0.45333 0.00000
O592 O 0.66026 0.83105 0.43576 0.00000
C593 C 0.72495 0.87672 0.52754 0.00000
C594 C 0.12631 0.55871 0.71459 0.00000
C595 C 0.06516 0.50089 0.67861 0.00000
Zn596 Zn 0.16698 0.53626 0.68186 0.00000
Zn597 Zn 0.11356 0.51357 0.69267 0.00000
Zn598 Zn 0.14258 0.50831 0.63823 0.00000
Zn599 Zn 0.16112 0.48184 0.68596 0.00000
O600 O 0.18885 0.52838 0.70860 0.00000
O601 O 0.19101 0.48683 0.70440 0.00000
C602 C 0.15171 0.45426 0.64482 0.00000
C603 C 0.19674 0.50727 0.63932 0.00000
C604 C 0.19758 0.50768 0.71402 0.00000
O605 O 0.05790 0.50615 0.70054 0.00000
O606 O 0.08703 0.50426 0.67108 0.00000
O607 O 0.13779 0.46970 0.63723 0.00000
O608 O 0.16662 0.45534 0.66251 0.00000
O609 O 0.14107 0.46481 0.71209 0.00000
O610 O 0.11354 0.49215 0.72136 0.00000
C611 C 0.15666 0.56348 0.63911 0.00000
O612 O 0.14405 0.50977 0.67473 0.00000
O613 O 0.10799 0.54572 0.70755 0.00000
O614 O 0.14749 0.55655 0.70693 0.00000
O615 O 0.17693 0.50312 0.62709 0.00000
O616 O 0.19543 0.51922 0.65841 0.00000
H617 H 0.06952 0.50400 0.71043 0.00000
O618 O 0.14524 0.54667 0.63213 0.00000
O619 O 0.16895 0.56424 0.66026 0.00000
C620 C 0.12328 0.47246 0.72495 0.00000
C621 C 0.44129 0.12631 0.71459 0.00000
C622 C 0.49911 0.06516 0.67861 0.00000
Zn623 Zn 0.46374 0.16698 0.68186 0.00000
Zn624 Zn 0.48643 0.11356 0.69267 0.00000
Zn625 Zn 0.49169 0.14258 0.63823 0.00000
Zn626 Zn 0.51816 0.16112 0.68596 0.00000
O627 O 0.47162 0.18885 0.70860 0.00000
O628 O 0.51317 0.19101 0.70440 0.00000
C629 C 0.54574 0.15171 0.64482 0.00000
C630 C 0.49273 0.19674 0.63932 0.00000
C631 C 0.49232 0.19758 0.71402 0.00000
O632 O 0.49385 0.05790 0.70054 0.00000
O633 O 0.49574 0.08703 0.67108 0.00000
O634 O 0.53030 0.13779 0.63723 0.00000
O635 O 0.54466 0.16662 0.66251 0.00000
O636 O 0.53519 0.14107 0.71209 0.00000
O637 O 0.50785 0.11354 0.72136 0.00000
C638 C 0.43652 0.15666 0.63911 0.00000
O639 O 0.49023 0.14405 0.67473 0.00000
O640 O 0.45428 0.10799 0.70755 0.00000
O641 O 0.44345 0.14749 0.70693 0.00000
O642 O 0.49688 0.17693 0.62709 0.00000
O643 O 0.48078 0.19543 0.65841 0.00000
H644 H 0.49600 0.06952 0.71043 0.00000
O645 O 0.45333 0.14524 0.63213 0.00000
O646 O 0.43576 0.16895 0.66026 0.00000
C647 C 0.52754 0.12328 0.72495 0.00000
H648 H 0.86540 0.35322 0.57208 0.00000
C649 C 0.84466 0.40627 0.58212 0.00000
H650 H 0.85220 0.35688 0.61242 0.00000
C651 C 0.84568 0.38991 0.62919 0.00000
H652 H 0.83877 0.43854 0.59893 0.00000
H653 H 0.84281 0.41204 0.56618 0.00000
H654 H 0.84502 0.38367 0.64507 0.00000
C655 C 0.85033 0.38255 0.58631 0.00000
C656 C 0.84987 0.37353 0.60953 0.00000
N657 N 0.85608 0.36515 0.56759 0.00000
C658 C 0.84265 0.41424 0.62583 0.00000
C659 C 0.84161 0.42201 0.60201 0.00000
H660 H 0.59479 0.15943 0.35689 0.00000
C661 C 0.59522 0.16459 0.41450 0.00000
H662 H 0.62401 0.13366 0.37413 0.00000
C663 C 0.63657 0.13721 0.40940 0.00000
H664 H 0.60810 0.16824 0.44884 0.00000
H665 H 0.58051 0.17282 0.41708 0.00000
H666 H 0.65001 0.12687 0.40749 0.00000
C667 C 0.60093 0.15578 0.39208 0.00000
C668 C 0.62083 0.14108 0.38916 0.00000
N669 N 0.58674 0.15994 0.37046 0.00000
C670 C 0.63287 0.14797 0.43138 0.00000
C671 C 0.61168 0.16118 0.43373 0.00000
H672 H 0.86322 0.62202 0.44941 0.00000
C673 C 0.82810 0.61058 0.40490 0.00000
H674 H 0.88514 0.60583 0.41665 0.00000
C675 C 0.86905 0.58791 0.38777 0.00000
H676 H 0.81260 0.59247 0.37678 0.00000
H677 H 0.81415 0.61923 0.40953 0.00000
H678 H 0.88351 0.58125 0.38161 0.00000
C679 C 0.84920 0.61305 0.41758 0.00000
C680 C 0.87023 0.60291 0.40888 0.00000
N681 N 0.85165 0.62677 0.43976 0.00000
C682 C 0.84776 0.58285 0.37621 0.00000
C683 C 0.82748 0.59488 0.38475 0.00000
H684 H 0.35674 0.86866 0.43065 0.00000
C685 C 0.40537 0.84024 0.41750 0.00000
H686 H 0.35919 0.86153 0.38872 0.00000
C687 C 0.39097 0.85170 0.37118 0.00000
H688 H 0.43652 0.83116 0.40002 0.00000
H689 H 0.41019 0.83486 0.43295 0.00000
H690 H 0.38522 0.85472 0.35539 0.00000
C691 C 0.38323 0.85082 0.41424 0.00000
C692 C 0.37503 0.85571 0.39123 0.00000
N693 N 0.36661 0.85669 0.43361 0.00000
C694 C 0.41421 0.84369 0.37405 0.00000
C695 C 0.42090 0.83748 0.39741 0.00000
H696 H 0.13542 0.37713 0.44855 0.00000
C697 C 0.17208 0.39054 0.40588 0.00000
H698 H 0.11431 0.39180 0.41456 0.00000
C699 C 0.13078 0.41057 0.38644 0.00000
H700 H 0.18791 0.40947 0.37849 0.00000
H701 H 0.18627 0.38279 0.41130 0.00000
H702 H 0.11628 0.41630 0.37949 0.00000
C703 C 0.15052 0.38682 0.41744 0.00000
C704 C 0.12941 0.39561 0.40757 0.00000
N705 N 0.14775 0.37306 0.43956 0.00000
C706 C 0.15231 0.41689 0.37599 0.00000
C707 C 0.17281 0.40617 0.38568 0.00000
H708 H 0.55418 0.62981 0.82878 0.00000
C709 C 0.60546 0.61994 0.85365 0.00000
H710 H 0.56307 0.58814 0.82902 0.00000
C711 C 0.59750 0.57432 0.83522 0.00000
H712 H 0.63922 0.60620 0.85911 0.00000
H713 H 0.60821 0.63492 0.86133 0.00000
H714 H 0.59399 0.55851 0.82983 0.00000
C715 C 0.58358 0.61504 0.84316 0.00000
C716 C 0.57862 0.59209 0.83483 0.00000
N717 N 0.56404 0.63233 0.84085 0.00000
C718 C 0.62041 0.57941 0.84307 0.00000
C719 C 0.62388 0.60226 0.85280 0.00000
H720 H 0.57579 0.34759 0.14703 0.00000
C721 C 0.58449 0.40470 0.14409 0.00000
H722 H 0.60820 0.35924 0.17212 0.00000
C723 C 0.62566 0.39244 0.16937 0.00000
H724 H 0.60212 0.43693 0.14119 0.00000
H725 H 0.57000 0.40975 0.13663 0.00000
H726 H 0.63906 0.38813 0.17903 0.00000
C727 C 0.58717 0.38132 0.15176 0.00000
C728 C 0.60698 0.37489 0.16543 0.00000
N729 N 0.56980 0.36220 0.14740 0.00000
C730 C 0.62482 0.41518 0.15964 0.00000
C731 C 0.60371 0.42117 0.14749 0.00000
H732 H 0.61573 0.85171 0.43824 0.00000
C733 C 0.60744 0.85203 0.38100 0.00000
H734 H 0.57799 0.83457 0.42835 0.00000
C735 C 0.56142 0.83883 0.39486 0.00000
H736 H 0.59075 0.85656 0.34845 0.00000
H737 H 0.62327 0.85522 0.37550 0.00000
H738 H 0.54609 0.83319 0.39981 0.00000
C739 C 0.60318 0.84720 0.40490 0.00000
C740 C 0.58067 0.83945 0.41222 0.00000
N741 N 0.62128 0.84867 0.42377 0.00000
C742 C 0.56441 0.84615 0.37141 0.00000
C743 C 0.58781 0.85216 0.36466 0.00000
H744 H 0.16262 0.61433 0.43836 0.00000
C745 C 0.13866 0.60320 0.38691 0.00000
H746 H 0.18612 0.58630 0.41651 0.00000
C747 C 0.17339 0.56745 0.38656 0.00000
H748 H 0.12621 0.58418 0.35790 0.00000
H749 H 0.12744 0.61600 0.38578 0.00000
H750 H 0.18610 0.55606 0.38617 0.00000
C751 C 0.15537 0.60272 0.40516 0.00000
C752 C 0.17364 0.58579 0.40489 0.00000
N753 N 0.15610 0.61976 0.42505 0.00000
C754 C 0.15541 0.56579 0.36964 0.00000
C755 C 0.13845 0.58427 0.36977 0.00000
H756 H 0.42665 0.86308 0.64851 0.00000
C757 C 0.41777 0.84725 0.59359 0.00000
H758 H 0.38762 0.84669 0.64364 0.00000
C759 C 0.37104 0.84219 0.61019 0.00000
H760 H 0.40109 0.84329 0.56096 0.00000
H761 H 0.43373 0.84749 0.58757 0.00000
H762 H 0.35538 0.83941 0.61640 0.00000
C763 C 0.41343 0.84996 0.61780 0.00000
C764 C 0.39048 0.84641 0.62682 0.00000
N765 N 0.43180 0.85553 0.63563 0.00000
C766 C 0.37431 0.84208 0.58566 0.00000
C767 C 0.39802 0.84407 0.57771 0.00000
H768 H 0.13657 0.56993 0.62381 0.00000
C769 C 0.16140 0.61917 0.60637 0.00000
H770 H 0.13684 0.57246 0.58128 0.00000
C771 C 0.14302 0.60443 0.56245 0.00000
H772 H 0.16685 0.65049 0.58772 0.00000
H773 H 0.16907 0.62415 0.62077 0.00000
H774 H 0.13764 0.59858 0.54734 0.00000
C775 C 0.15094 0.59679 0.60480 0.00000
C776 C 0.14263 0.58844 0.58285 0.00000
N777 N 0.14863 0.58007 0.62483 0.00000
C778 C 0.15085 0.62785 0.56405 0.00000
C779 C 0.16056 0.63472 0.58613 0.00000
H780 H 0.38093 0.15324 0.54657 0.00000
C781 C 0.38066 0.16450 0.60331 0.00000
H782 H 0.41217 0.13204 0.56632 0.00000
C783 C 0.42422 0.14038 0.60096 0.00000
H784 H 0.39301 0.17286 0.63701 0.00000
H785 H 0.36528 0.17166 0.60507 0.00000
H786 H 0.43851 0.13108 0.60009 0.00000
C787 C 0.38720 0.15388 0.58193 0.00000
C788 C 0.40830 0.14072 0.58050 0.00000
N789 N 0.37280 0.15450 0.56006 0.00000
C790 C 0.41951 0.15305 0.62169 0.00000
C791 C 0.39725 0.16458 0.62272 0.00000
H792 H 0.35683 0.15897 0.40520 0.00000
C793 C 0.41437 0.16489 0.40460 0.00000
H794 H 0.37439 0.13298 0.37636 0.00000
C795 C 0.40959 0.13681 0.36369 0.00000
H796 H 0.44864 0.16881 0.39161 0.00000
H797 H 0.41685 0.17339 0.41918 0.00000
H798 H 0.40779 0.12623 0.35042 0.00000
C799 C 0.39206 0.15569 0.39906 0.00000
C800 C 0.38932 0.14065 0.37940 0.00000
N801 N 0.37041 0.15979 0.41322 0.00000
C802 C 0.43143 0.14792 0.36719 0.00000
C803 C 0.43363 0.16149 0.38817 0.00000
H804 H 0.65140 0.85698 0.57529 0.00000
C805 C 0.59427 0.85287 0.58333 0.00000
H806 H 0.64268 0.83456 0.61045 0.00000
C807 C 0.60906 0.83467 0.62731 0.00000
H808 H 0.56158 0.85328 0.60034 0.00000
H809 H 0.58854 0.85775 0.56803 0.00000
H810 H 0.61439 0.82739 0.64180 0.00000
C811 C 0.61843 0.84894 0.58702 0.00000
C812 C 0.62628 0.83878 0.60837 0.00000
N813 N 0.63712 0.85384 0.56933 0.00000
C814 C 0.58521 0.84092 0.62520 0.00000
C815 C 0.57803 0.84950 0.60275 0.00000
H816 H 0.40541 0.64337 0.84539 0.00000
C817 C 0.40265 0.58707 0.83246 0.00000
H818 H 0.38029 0.62277 0.87295 0.00000
C819 C 0.36641 0.58839 0.86666 0.00000
H820 H 0.38846 0.55362 0.82624 0.00000
H821 H 0.41577 0.58562 0.82166 0.00000
H822 H 0.35487 0.58887 0.87922 0.00000
C823 C 0.39903 0.60804 0.84509 0.00000
C824 C 0.38184 0.60892 0.86310 0.00000
N825 N 0.41292 0.62998 0.84169 0.00000
C826 C 0.36775 0.56813 0.85250 0.00000
C827 C 0.38646 0.56759 0.83581 0.00000
H828 H 0.63234 0.55625 0.17238 0.00000
C829 C 0.61880 0.60470 0.14385 0.00000
H830 H 0.59078 0.56488 0.17616 0.00000
C831 C 0.57577 0.59843 0.16822 0.00000
H832 H 0.60396 0.63767 0.13670 0.00000
H833 H 0.63273 0.60674 0.13422 0.00000
H834 H 0.56075 0.59542 0.17576 0.00000
C835 C 0.61551 0.58398 0.15697 0.00000
C836 C 0.59378 0.57978 0.16840 0.00000
N837 N 0.63327 0.56485 0.15918 0.00000
C838 C 0.57953 0.62046 0.15757 0.00000
C839 C 0.60104 0.62303 0.14493 0.00000
H840 H 0.43542 0.63745 0.12876 0.00000
C841 C 0.41573 0.59730 0.16544 0.00000
H842 H 0.39295 0.63465 0.12670 0.00000
C843 C 0.37339 0.60564 0.14049 0.00000
H844 H 0.39640 0.56869 0.17835 0.00000
H845 H 0.42948 0.59490 0.17523 0.00000
H846 H 0.35877 0.60952 0.13258 0.00000
C847 C 0.41515 0.61568 0.14888 0.00000
C848 C 0.39394 0.62105 0.13696 0.00000
N849 N 0.43546 0.63123 0.14328 0.00000
C850 C 0.37417 0.58549 0.15484 0.00000
C851 C 0.39543 0.58195 0.16768 0.00000
H852 H 0.34862 0.42636 0.16110 0.00000
C853 C 0.39817 0.40923 0.13668 0.00000
H854 H 0.37249 0.40471 0.18897 0.00000
C855 C 0.40154 0.38303 0.17895 0.00000
H856 H 0.42631 0.38747 0.12703 0.00000
H857 H 0.39831 0.41889 0.12262 0.00000
H858 H 0.40302 0.37509 0.19399 0.00000
C859 C 0.38126 0.41302 0.15435 0.00000
C860 C 0.38312 0.40106 0.17613 0.00000
N861 N 0.36134 0.42990 0.15244 0.00000
C862 C 0.41703 0.37687 0.16066 0.00000
C863 C 0.41542 0.39065 0.13976 0.00000
H864 H 0.35899 0.40680 0.83242 0.00000
C865 C 0.41606 0.40726 0.84180 0.00000
H866 H 0.37130 0.37122 0.85238 0.00000
C867 C 0.40709 0.35985 0.85431 0.00000
H868 H 0.45100 0.39563 0.84331 0.00000
H869 H 0.41963 0.42370 0.83894 0.00000
H870 H 0.40358 0.34403 0.85965 0.00000
C871 C 0.39258 0.39950 0.84281 0.00000
C872 C 0.38745 0.37625 0.85012 0.00000
N873 N 0.37176 0.41451 0.83757 0.00000
C874 C 0.43074 0.36626 0.85082 0.00000
C875 C 0.43489 0.39033 0.84510 0.00000
H876 H 0.59475 0.35664 0.84370 0.00000
C877 C 0.59655 0.41353 0.83343 0.00000
H878 H 0.62134 0.37603 0.87076 0.00000
C879 C 0.63470 0.41077 0.86539 0.00000
H880 H 0.61023 0.44733 0.82807 0.00000
H881 H 0.58282 0.41542 0.82348 0.00000
H882 H 0.64695 0.40974 0.87724 0.00000
C883 C 0.60097 0.39199 0.84479 0.00000
C884 C 0.61917 0.39034 0.86171 0.00000
N885 N 0.58699 0.37015 0.84111 0.00000
C886 C 0.63247 0.43169 0.85236 0.00000
C887 C 0.61283 0.43292 0.83681 0.00000
H888 H 0.82544 0.38114 0.43184 0.00000
C889 C 0.86432 0.40406 0.39567 0.00000
H890 H 0.80620 0.39848 0.39800 0.00000
C891 C 0.82312 0.42263 0.37465 0.00000
H892 H 0.88052 0.42819 0.37300 0.00000
H893 H 0.87870 0.39700 0.40155 0.00000
H894 H 0.80881 0.42788 0.36696 0.00000
C895 C 0.84230 0.39665 0.40418 0.00000
C896 C 0.82138 0.40470 0.39330 0.00000
N897 N 0.83895 0.37963 0.42381 0.00000
C898 C 0.84472 0.43243 0.36759 0.00000
C899 C 0.86525 0.42244 0.37796 0.00000
H900 H 0.16773 0.38460 0.56342 0.00000
C901 C 0.13666 0.39934 0.60992 0.00000
H902 H 0.19086 0.40845 0.59010 0.00000
C903 C 0.17590 0.42905 0.61777 0.00000
H904 H 0.12217 0.42006 0.63674 0.00000
H905 H 0.12355 0.38851 0.60857 0.00000
H906 H 0.18995 0.43824 0.62085 0.00000
C907 C 0.15634 0.39716 0.59507 0.00000
C908 C 0.17667 0.41094 0.59924 0.00000
N909 N 0.15807 0.38027 0.57513 0.00000
C910 C 0.15557 0.43355 0.63115 0.00000
C911 C 0.13624 0.41803 0.62733 0.00000
H912 H 0.61421 0.16137 0.56136 0.00000
C913 C 0.60374 0.13927 0.61378 0.00000
H914 H 0.58521 0.18473 0.58208 0.00000
C915 C 0.56671 0.17261 0.61249 0.00000
H916 H 0.58506 0.12738 0.64324 0.00000
H917 H 0.61694 0.12860 0.61544 0.00000
H918 H 0.55485 0.18489 0.61229 0.00000
C919 C 0.60272 0.15513 0.59481 0.00000
C920 C 0.58511 0.17275 0.59423 0.00000
N921 N 0.61981 0.15564 0.57497 0.00000
C922 C 0.56564 0.15533 0.63018 0.00000
C923 C 0.58474 0.13909 0.63085 0.00000
H924 H 0.82739 0.56333 0.64060 0.00000
C925 C 0.86223 0.60076 0.61357 0.00000
H926 H 0.81161 0.57379 0.60243 0.00000
C927 C 0.82326 0.60355 0.58262 0.00000
H928 H 0.87308 0.63021 0.59425 0.00000
H929 H 0.87638 0.59932 0.62298 0.00000
H930 H 0.81027 0.60344 0.57155 0.00000
C931 C 0.84323 0.58527 0.61700 0.00000
C932 C 0.82401 0.58543 0.60115 0.00000
N933 N 0.84197 0.56735 0.63605 0.00000
C934 C 0.84064 0.62103 0.58039 0.00000
C935 C 0.86036 0.61896 0.59575 0.00000
H936 H 0.04451 0.49106 0.69004 0.00000
C937 C 0.00133 0.51645 0.66111 0.00000
H938 H 0.01035 0.46564 0.68852 0.00000
C939 C 0.97590 0.47771 0.67946 0.00000
H940 H 0.96738 0.52817 0.65284 0.00000
H941 H 0.00969 0.52919 0.65345 0.00000
H942 H 0.96772 0.46375 0.68489 0.00000
C943 C 0.01374 0.49878 0.67320 0.00000
C944 C 0.00173 0.47862 0.68157 0.00000
N945 N 0.03962 0.49897 0.67727 0.00000
C946 C 0.96267 0.49631 0.66992 0.00000
C947 C 0.97583 0.51536 0.66027 0.00000
H948 H 0.51831 0.95562 0.31704 0.00000
C949 C 0.48169 0.99864 0.32943 0.00000
H950 H 0.53940 0.98972 0.33146 0.00000
C951 C 0.52435 0.02412 0.33339 0.00000
H952 H 0.46733 0.03256 0.33086 0.00000
H953 H 0.46684 0.99026 0.32953 0.00000
H954 H 0.53912 0.03232 0.33583 0.00000
C955 C 0.50308 0.98628 0.32787 0.00000
C956 C 0.52467 0.99832 0.33093 0.00000
N957 N 0.50502 0.96044 0.32408 0.00000
C958 C 0.50345 0.03733 0.33229 0.00000
C959 C 0.48216 0.02414 0.33088 0.00000
H960 H 0.04435 0.52057 0.32062 0.00000
C961 C 0.00135 0.48227 0.32600 0.00000
H962 H 0.01030 0.53857 0.33883 0.00000
C963 C 0.97589 0.52341 0.33799 0.00000
H964 H 0.96744 0.46789 0.32480 0.00000
H965 H 0.00973 0.46766 0.32329 0.00000
H966 H 0.96770 0.53746 0.34319 0.00000
C967 C 0.01371 0.50357 0.32846 0.00000
C968 C 0.00169 0.52420 0.33557 0.00000
N969 N 0.03955 0.50619 0.32505 0.00000
C970 C 0.96267 0.50309 0.33301 0.00000
C971 C 0.97586 0.48245 0.32758 0.00000
H972 H 0.69147 0.50341 0.04459 0.00000
C973 C 0.65721 0.48614 0.00130 0.00000
H974 H 0.69654 0.52838 0.01043 0.00000
C975 C 0.68485 0.51898 0.97595 0.00000
H976 H 0.64636 0.47688 0.96732 0.00000
H977 H 0.64654 0.47576 0.00962 0.00000
H978 H 0.69366 0.53111 0.96779 0.00000
C979 C 0.67333 0.50019 0.01376 0.00000
C980 C 0.68657 0.51757 0.00178 0.00000
N981 N 0.67714 0.49899 0.03964 0.00000
C982 C 0.67096 0.50338 0.96267 0.00000
C983 C 0.65676 0.48740 0.97579 0.00000
H984 H 0.52110 0.04435 0.67825 0.00000
C985 C 0.48256 0.00135 0.67498 0.00000
H986 H 0.53805 0.01030 0.65903 0.00000
C987 C 0.52297 0.97590 0.66070 0.00000
H988 H 0.46827 0.96743 0.67697 0.00000
H989 H 0.46813 0.00972 0.67851 0.00000
H990 H 0.53670 0.96771 0.65471 0.00000
C991 C 0.50369 0.01371 0.67134 0.00000
C992 C 0.52389 0.00170 0.66309 0.00000
N993 N 0.50650 0.03954 0.67463 0.00000
C994 C 0.50295 0.96268 0.66679 0.00000
C995 C 0.48265 0.97585 0.67337 0.00000
H996 H 0.30979 0.95527 0.50728 0.00000
C997 C 0.34787 0.99880 0.50663 0.00000
H998 H 0.29343 0.98935 0.48762 0.00000
C999 C 0.30794 0.02392 0.49053 0.00000
H1000 H 0.36158 0.03286 0.50982 0.00000
H1001 H 0.36221 0.99056 0.51083 0.00000
H1002 H 0.29444 0.03201 0.48393 0.00000
C1003 C 0.32713 0.98622 0.50171 0.00000
C1004 C 0.30724 0.99808 0.49254 0.00000
N1005 N 0.32450 0.96031 0.50451 0.00000
C1006 C 0.32742 0.03731 0.49786 0.00000
C1007 C 0.34752 0.02431 0.50535 0.00000
H1008 H 0.95527 0.64830 0.50727 0.00000
C1009 C 0.99990 0.67777 0.48370 0.00000
H1010 H 0.98873 0.64923 0.53363 0.00000
C1011 C 0.02349 0.65854 0.52270 0.00000
H1012 H 0.03336 0.68629 0.47309 0.00000
H1013 H 0.99110 0.68572 0.47092 0.00000
H1014 H 0.03130 0.65280 0.53675 0.00000
C1015 C 0.98623 0.66529 0.50077 0.00000
C1016 C 0.99770 0.65646 0.52104 0.00000
N1017 N 0.96037 0.66123 0.49978 0.00000
C1018 C 0.03722 0.66850 0.50468 0.00000
C1019 C 0.02457 0.67858 0.48550 0.00000
H1020 H 0.66705 0.04492 0.52168 0.00000
C1021 C 0.65841 0.00010 0.48516 0.00000
H1022 H 0.69071 0.01126 0.53274 0.00000
C1023 C 0.68460 0.97647 0.51982 0.00000
H1024 H 0.65224 0.96664 0.47308 0.00000
H1025 H 0.65055 0.00892 0.47231 0.00000
H1026 H 0.69458 0.96863 0.53123 0.00000
C1027 C 0.66836 0.01381 0.50379 0.00000
C1028 C 0.68251 0.00230 0.52076 0.00000
N1029 N 0.66600 0.03972 0.50680 0.00000
C1030 C 0.67267 0.96276 0.50303 0.00000
C1031 C 0.66007 0.97542 0.48542 0.00000
H1032 H 0.95560 0.34593 0.51705 0.00000
C1033 C 0.99887 0.31245 0.49827 0.00000
H1034 H 0.98926 0.36958 0.50596 0.00000
C1035 C 0.02381 0.35551 0.50116 0.00000
H1036 H 0.03292 0.29899 0.49409 0.00000
H1037 H 0.99065 0.29771 0.49579 0.00000
H1038 H 0.03181 0.37059 0.50112 0.00000
C1039 C 0.98629 0.33312 0.50350 0.00000
C1040 C 0.99804 0.35508 0.50393 0.00000
N1041 N 0.96048 0.33406 0.50785 0.00000
C1042 C 0.03727 0.33490 0.49863 0.00000
C1043 C 0.02433 0.31350 0.49663 0.00000
H1044 H 0.48863 0.68889 0.04448 0.00000
C1045 C 0.51731 0.66315 0.00134 0.00000
H1046 H 0.46358 0.68428 0.01033 0.00000
C1047 C 0.47665 0.67668 0.97589 0.00000
H1048 H 0.52994 0.65628 0.96741 0.00000
H1049 H 0.53088 0.65708 0.00971 0.00000
H1050 H 0.46214 0.68038 0.96770 0.00000
C1051 C 0.49831 0.67305 0.01374 0.00000
C1052 C 0.47730 0.67893 0.00171 0.00000
N1053 N 0.49801 0.67715 0.03960 0.00000
C1054 C 0.49626 0.66941 0.96267 0.00000
C1055 C 0.51633 0.66214 0.97584 0.00000
H1056 H 0.31329 0.51341 0.04481 0.00000
C1057 C 0.34909 0.50097 0.00112 0.00000
H1058 H 0.29148 0.49985 0.01081 0.00000
C1059 C 0.30603 0.49812 0.97618 0.00000
H1060 H 0.36296 0.49975 0.96700 0.00000
H1061 H 0.36405 0.50048 0.00930 0.00000
H1062 H 0.29111 0.49605 0.96815 0.00000
C1063 C 0.32790 0.50274 0.01380 0.00000
C1064 C 0.30610 0.50023 0.00202 0.00000
N1065 N 0.32638 0.50620 0.03971 0.00000
C1066 C 0.32677 0.49903 0.96270 0.00000
C1067 C 0.34825 0.49988 0.97562 0.00000
H1068 H 0.50242 0.35306 0.04460 0.00000
C1069 C 0.51112 0.31611 0.00010 0.00000
H1070 H 0.47812 0.36325 0.01111 0.00000
C1071 C 0.48400 0.34997 0.97642 0.00000
H1072 H 0.51704 0.30368 0.96677 0.00000
H1073 H 0.51931 0.30351 0.00903 0.00000
H1074 H 0.47372 0.36111 0.96856 0.00000
C1075 C 0.50102 0.33474 0.01375 0.00000
C1076 C 0.48642 0.35130 0.00220 0.00000
N1077 N 0.50367 0.33814 0.03958 0.00000
C1078 C 0.49604 0.33321 0.96277 0.00000
C1079 C 0.50911 0.31599 0.97550 0.00000
H1080 H 0.74012 0.51044 0.80184 0.00000
C1081 C 0.74570 0.48543 0.74999 0.00000
H1082 H 0.76825 0.53159 0.77782 0.00000
C1083 C 0.78390 0.51729 0.74676 0.00000
H1084 H 0.76160 0.47139 0.71985 0.00000
H1085 H 0.73203 0.47522 0.74988 0.00000
H1086 H 0.79617 0.52908 0.74544 0.00000
C1087 C 0.74876 0.50214 0.76798 0.00000
C1088 C 0.76697 0.51905 0.76632 0.00000
N1089 N 0.73328 0.50428 0.78901 0.00000
C1090 C 0.78297 0.49914 0.72996 0.00000
C1091 C 0.76330 0.48366 0.73156 0.00000
H1092 H 0.49040 0.22319 0.28862 0.00000
C1093 C 0.51831 0.24444 0.24263 0.00000
H1094 H 0.46279 0.23688 0.25920 0.00000
C1095 C 0.47232 0.25959 0.23079 0.00000
H1096 H 0.52731 0.26716 0.21504 0.00000
H1097 H 0.53404 0.23845 0.24540 0.00000
H1098 H 0.45634 0.26364 0.22639 0.00000
C1099 C 0.49936 0.23694 0.25668 0.00000
C1100 C 0.47605 0.24325 0.25057 0.00000
N1101 N 0.50171 0.22152 0.27772 0.00000
C1102 C 0.49106 0.26958 0.21807 0.00000
C1103 C 0.51399 0.26128 0.22392 0.00000
H1104 H 0.71364 0.47960 0.22649 0.00000
C1105 C 0.76773 0.49963 0.23075 0.00000
H1106 H 0.72032 0.49699 0.26481 0.00000
C1107 C 0.75454 0.50426 0.27860 0.00000
H1108 H 0.80118 0.50630 0.24471 0.00000
H1109 H 0.77246 0.49956 0.21437 0.00000
H1110 H 0.74940 0.50684 0.29467 0.00000
C1111 C 0.74421 0.49520 0.23706 0.00000
C1112 C 0.73679 0.49847 0.26061 0.00000
N1113 N 0.72546 0.48800 0.22024 0.00000
C1114 C 0.77866 0.50614 0.27337 0.00000
C1115 C 0.78484 0.50433 0.24913 0.00000
H1116 H 0.49766 0.80274 0.26047 0.00000
C1117 C 0.50974 0.74628 0.25711 0.00000
H1118 H 0.47925 0.78538 0.22620 0.00000
C1119 C 0.48902 0.75191 0.21212 0.00000
H1120 H 0.51955 0.71376 0.24280 0.00000
H1121 H 0.51573 0.74335 0.27281 0.00000
H1122 H 0.48084 0.75384 0.19727 0.00000
C1123 C 0.49933 0.76802 0.25148 0.00000
C1124 C 0.48782 0.77102 0.22960 0.00000
N1125 N 0.49850 0.78866 0.26758 0.00000
C1126 C 0.50161 0.73098 0.21614 0.00000
C1127 C 0.51140 0.72827 0.23908 0.00000
H1128 H 0.20111 0.51073 0.26675 0.00000
C1129 C 0.25682 0.49786 0.25801 0.00000
H1130 H 0.20894 0.50491 0.22527 0.00000
C1131 C 0.24352 0.50492 0.21049 0.00000
H1132 H 0.29058 0.49841 0.24322 0.00000
H1133 H 0.26174 0.49403 0.27388 0.00000
H1134 H 0.23844 0.50623 0.19425 0.00000
C1135 C 0.23290 0.50153 0.25281 0.00000
C1136 C 0.22553 0.50396 0.22914 0.00000
N1137 N 0.21377 0.50215 0.27069 0.00000
C1138 C 0.26777 0.50404 0.21535 0.00000
C1139 C 0.27406 0.49990 0.23927 0.00000
H1140 H 0.51577 0.80000 0.73927 0.00000
C1141 C 0.48319 0.75309 0.74840 0.00000
H1142 H 0.53683 0.77132 0.76272 0.00000
C1143 C 0.52011 0.74251 0.78017 0.00000
H1144 H 0.46694 0.72512 0.76606 0.00000
H1145 H 0.47091 0.75543 0.73679 0.00000
H1146 H 0.53343 0.73855 0.79009 0.00000
C1147 C 0.50314 0.76773 0.74869 0.00000
C1148 C 0.52239 0.76226 0.76354 0.00000
N1149 N 0.50631 0.78879 0.73344 0.00000
C1150 C 0.49935 0.72919 0.78224 0.00000
C1151 C 0.48123 0.73442 0.76571 0.00000
H1152 H 0.21621 0.72532 0.47204 0.00000
C1153 C 0.23331 0.76276 0.51268 0.00000
H1154 H 0.25823 0.73195 0.46974 0.00000
C1155 C 0.27562 0.76084 0.48639 0.00000
H1156 H 0.25047 0.79132 0.52843 0.00000
H1157 H 0.21963 0.76288 0.52286 0.00000
H1158 H 0.29033 0.75911 0.47791 0.00000
C1159 C 0.23504 0.74641 0.49418 0.00000
C1160 C 0.25635 0.74421 0.48145 0.00000
N1161 N 0.21597 0.72989 0.48716 0.00000
C1162 C 0.27348 0.77915 0.50290 0.00000
C1163 C 0.25230 0.77944 0.51633 0.00000
H1164 H 0.78142 0.28482 0.51397 0.00000
C1165 C 0.75133 0.24696 0.48224 0.00000
H1166 H 0.77225 0.24998 0.53672 0.00000
C1167 C 0.74607 0.22493 0.52664 0.00000
H1168 H 0.72531 0.22260 0.47287 0.00000
H1169 H 0.75382 0.25323 0.46658 0.00000
H1170 H 0.74541 0.21698 0.54173 0.00000
C1171 C 0.76383 0.25608 0.50156 0.00000
C1172 C 0.76249 0.24478 0.52372 0.00000
N1173 N 0.77976 0.27684 0.50045 0.00000
C1174 C 0.73128 0.21710 0.50841 0.00000
C1175 C 0.73462 0.22803 0.48608 0.00000
H1176 H 0.70912 0.77087 0.48972 0.00000
C1177 C 0.76680 0.76666 0.49070 0.00000
H1178 H 0.72156 0.74001 0.51634 0.00000
C1179 C 0.75612 0.72518 0.51620 0.00000
H1180 H 0.80042 0.75158 0.49035 0.00000
H1181 H 0.77120 0.78134 0.48321 0.00000
H1182 H 0.75223 0.71168 0.52590 0.00000
C1183 C 0.74324 0.76229 0.49691 0.00000
C1184 C 0.73747 0.74232 0.51065 0.00000
N1185 N 0.72316 0.77799 0.49088 0.00000
C1186 C 0.77932 0.72762 0.50794 0.00000
C1187 C 0.78445 0.74888 0.49566 0.00000
H1188 H 0.20271 0.26871 0.48734 0.00000
C1189 C 0.25673 0.25744 0.50468 0.00000
H1190 H 0.20935 0.22669 0.48971 0.00000
C1191 C 0.24356 0.21117 0.49163 0.00000
H1192 H 0.29016 0.24200 0.50597 0.00000
H1193 H 0.26145 0.27274 0.51056 0.00000
H1194 H 0.23842 0.19526 0.48820 0.00000
C1195 C 0.23323 0.25319 0.49817 0.00000
C1196 C 0.22582 0.23005 0.49267 0.00000
N1197 N 0.21450 0.27148 0.49747 0.00000
C1198 C 0.26766 0.21535 0.49537 0.00000
C1199 C 0.27383 0.23860 0.50248 0.00000
H1200 H 0.21183 0.52748 0.72961 0.00000
C1201 C 0.23587 0.48428 0.75964 0.00000
H1202 H 0.25249 0.53628 0.73880 0.00000
C1203 C 0.27229 0.51789 0.76496 0.00000
H1204 H 0.25527 0.46679 0.78563 0.00000
H1205 H 0.22442 0.47189 0.75712 0.00000
H1206 H 0.28510 0.52915 0.76564 0.00000
C1207 C 0.23425 0.50560 0.74717 0.00000
C1208 C 0.25271 0.52227 0.74854 0.00000
N1209 N 0.21446 0.51199 0.73125 0.00000
C1210 C 0.27309 0.49804 0.77972 0.00000
C1211 C 0.25492 0.48108 0.77634 0.00000
H1212 H 0.49030 0.19799 0.74015 0.00000
C1213 C 0.51420 0.25040 0.74538 0.00000
H1214 H 0.46926 0.22138 0.76889 0.00000
C1215 C 0.48319 0.25271 0.78434 0.00000
H1216 H 0.52790 0.28080 0.76109 0.00000
H1217 H 0.52407 0.25081 0.73148 0.00000
H1218 H 0.47166 0.25370 0.79689 0.00000
C1219 C 0.49800 0.23200 0.74875 0.00000
C1220 C 0.48149 0.23318 0.76737 0.00000
N1221 N 0.49599 0.21099 0.73323 0.00000
C1222 C 0.50091 0.26994 0.78306 0.00000
C1223 C 0.51595 0.26879 0.76302 0.00000
loop_
_geom_bond_atom_site_label_1
_geom_bond_atom_site_label_2
_geom_bond_distance
_geom_bond_site_symmetry_2
_ccdc_geom_bond_type
C0 O19 1.282 . A
C0 O20 1.233 . A
C1 O11 1.291 . A
C1 O12 1.274 . A
Zn2 O6 1.930 . S
Zn2 O18 1.948 . S
Zn2 O20 2.053 . S
Zn2 O22 2.212 . S
Zn2 O25 1.929 . S
Zn3 O12 1.931 . S
Zn3 O16 1.950 . S
Zn3 O18 1.938 . S
Zn3 O19 1.954 . S
Zn4 O13 2.120 . S
Zn4 O18 1.992 . S
Zn4 O21 1.988 . S
Zn4 O24 2.121 . S
Zn5 O7 1.932 . S
Zn5 O14 1.951 . S
Zn5 O15 2.020 . S
Zn5 O18 1.885 . S
O6 C10 1.259 . A
O7 C10 1.301 . A
C8 O13 1.205 . A
C8 O14 1.262 . A
C9 O21 1.288 . A
C9 O22 1.229 . A
O11 H23 0.839 . S
O15 C26 1.267 . A
O16 C26 1.213 . A
C17 O24 1.171 . A
C17 O25 1.333 . A
C27 O46 1.282 . A
C27 O47 1.233 . A
C28 O38 1.291 . A
C28 O39 1.274 . A
Zn29 O33 1.930 . S
Zn29 O45 1.948 . S
Zn29 O47 2.053 . S
Zn29 O49 2.212 . S
Zn29 O52 1.929 . S
Zn30 O39 1.931 . S
Zn30 O43 1.950 . S
Zn30 O45 1.938 . S
Zn30 O46 1.954 . S
Zn31 O40 2.120 . S
Zn31 O45 1.992 . S
Zn31 O48 1.988 . S
Zn31 O51 2.121 . S
Zn32 O34 1.932 . S
Zn32 O41 1.951 . S
Zn32 O42 2.020 . S
Zn32 O45 1.885 . S
O33 C37 1.259 . A
O34 C37 1.301 . A
C35 O40 1.205 . A
C35 O41 1.262 . A
C36 O48 1.288 . A
C36 O49 1.229 . A
O38 H50 0.839 . S
O42 C53 1.267 . A
O43 C53 1.213 . A
C44 O51 1.171 . A
C44 O52 1.333 . A
C54 O73 1.282 . A
C54 O74 1.233 . A
C55 O65 1.291 . A
C55 O66 1.274 . A
Zn56 O60 1.930 . S
Zn56 O72 1.948 . S
Zn56 O74 2.053 . S
Zn56 O76 2.212 . S
Zn56 O79 1.929 . S
Zn57 O66 1.931 . S
Zn57 O70 1.950 . S
Zn57 O72 1.938 . S
Zn57 O73 1.954 . S
Zn58 O67 2.120 . S
Zn58 O72 1.992 . S
Zn58 O75 1.988 . S
Zn58 O78 2.121 . S
Zn59 O61 1.932 . S
Zn59 O68 1.951 . S
Zn59 O69 2.020 . S
Zn59 O72 1.885 . S
O60 C64 1.259 . A
O61 C64 1.301 . A
C62 O67 1.205 . A
C62 O68 1.262 . A
C63 O75 1.288 . A
C63 O76 1.229 . A
O65 H77 0.839 . S
O69 C80 1.267 . A
O70 C80 1.213 . A
C71 O78 1.171 . A
C71 O79 1.333 . A
C81 O100 1.282 . A
C81 O101 1.233 . A
C82 O92 1.291 . A
C82 O93 1.274 . A
Zn83 O87 1.930 . S
Zn83 O99 1.948 . S
Zn83 O101 2.053 . S
Zn83 O103 2.212 . S
Zn83 O106 1.929 . S
Zn84 O93 1.931 . S
Zn84 O97 1.950 . S
Zn84 O99 1.938 . S
Zn84 O100 1.954 . S
Zn85 O94 2.120 . S
Zn85 O99 1.992 . S
Zn85 O102 1.988 . S
Zn85 O105 2.121 . S
Zn86 O88 1.932 . S
Zn86 O95 1.951 . S
Zn86 O96 2.020 . S
Zn86 O99 1.885 . S
O87 C91 1.259 . A
O88 C91 1.301 . A
C89 O94 1.205 . A
C89 O95 1.262 . A
C90 O102 1.288 . A
C90 O103 1.229 . A
O92 H104 0.839 . S
O96 C107 1.267 . A
O97 C107 1.213 . A
C98 O105 1.171 . A
C98 O106 1.333 . A
C108 O127 1.282 . A
C108 O128 1.233 . A
C109 O119 1.291 . A
C109 O120 1.274 . A
Zn110 O114 1.930 . S
Zn110 O126 1.948 . S
Zn110 O128 2.053 . S
Zn110 O130 2.212 . S
Zn110 O133 1.929 . S
Zn111 O120 1.931 . S
Zn111 O124 1.950 . S
Zn111 O126 1.938 . S
Zn111 O127 1.954 . S
Zn112 O121 2.120 . S
Zn112 O126 1.992 . S
Zn112 O129 1.988 . S
Zn112 O132 2.121 . S
Zn113 O115 1.932 . S
Zn113 O122 1.951 . S
Zn113 O123 2.020 . S
Zn113 O126 1.885 . S
O114 C118 1.259 . A
O115 C118 1.301 . A
C116 O121 1.205 . A
C116 O122 1.262 . A
C117 O129 1.288 . A
C117 O130 1.229 . A
O119 H131 0.839 . S
O123 C134 1.267 . A
O124 C134 1.213 . A
C125 O132 1.171 . A
C125 O133 1.333 . A
C135 O154 1.282 . A
C135 O155 1.233 . A
C136 O146 1.291 . A
C136 O147 1.274 . A
Zn137 O141 1.930 . S
Zn137 O153 1.948 . S
Zn137 O155 2.053 . S
Zn137 O157 2.212 . S
Zn137 O160 1.929 . S
Zn138 O147 1.931 . S
Zn138 O151 1.950 . S
Zn138 O153 1.938 . S
Zn138 O154 1.954 . S
Zn139 O148 2.120 . S
Zn139 O153 1.992 . S
Zn139 O156 1.988 . S
Zn139 O159 2.121 . S
Zn140 O142 1.932 . S
Zn140 O149 1.951 . S
Zn140 O150 2.020 . S
Zn140 O153 1.885 . S
O141 C145 1.259 . A
O142 C145 1.301 . A
C143 O148 1.205 . A
C143 O149 1.262 . A
C144 O156 1.288 . A
C144 O157 1.229 . A
O146 H158 0.839 . S
O150 C161 1.267 . A
O151 C161 1.213 . A
C152 O159 1.171 . A
C152 O160 1.333 . A
C162 O181 1.282 . A
C162 O182 1.233 . A
C163 O173 1.291 . A
C163 O174 1.274 . A
Zn164 O168 1.930 . S
Zn164 O180 1.948 . S
Zn164 O182 2.053 . S
Zn164 O184 2.212 . S
Zn164 O187 1.929 . S
Zn165 O174 1.931 . S
Zn165 O178 1.950 . S
Zn165 O180 1.938 . S
Zn165 O181 1.954 . S
Zn166 O175 2.120 . S
Zn166 O180 1.992 . S
Zn166 O183 1.988 . S
Zn166 O186 2.121 . S
Zn167 O169 1.932 . S
Zn167 O176 1.951 . S
Zn167 O177 2.020 . S
Zn167 O180 1.885 . S
O168 C172 1.259 . A
O169 C172 1.301 . A
C170 O175 1.205 . A
C170 O176 1.262 . A
C171 O183 1.288 . A
C171 O184 1.229 . A
O173 H185 0.839 . S
O177 C188 1.267 . A
O178 C188 1.213 . A
C179 O186 1.171 . A
C179 O187 1.333 . A
C189 O208 1.282 . A
C189 O209 1.233 . A
C190 O200 1.291 . A
C190 O201 1.274 . A
Zn191 O195 1.930 . S
Zn191 O207 1.948 . S
Zn191 O209 2.053 . S
Zn191 O211 2.212 . S
Zn191 O214 1.929 . S
Zn192 O201 1.931 . S
Zn192 O205 1.950 . S
Zn192 O207 1.938 . S
Zn192 O208 1.954 . S
Zn193 O202 2.120 . S
Zn193 O207 1.992 . S
Zn193 O210 1.988 . S
Zn193 O213 2.121 . S
Zn194 O196 1.932 . S
Zn194 O203 1.951 . S
Zn194 O204 2.020 . S
Zn194 O207 1.885 . S
O195 C199 1.259 . A
O196 C199 1.301 . A
C197 O202 1.205 . A
C197 O203 1.262 . A
C198 O210 1.288 . A
C198 O211 1.229 . A
O200 H212 0.839 . S
O204 C215 1.267 . A
O205 C215 1.213 . A
C206 O213 1.171 . A
C206 O214 1.333 . A
C216 O235 1.282 . A
C216 O236 1.233 . A
C217 O227 1.291 . A
C217 O228 1.274 . A
Zn218 O222 1.930 . S
Zn218 O234 1.948 . S
Zn218 O236 2.053 . S
Zn218 O238 2.212 . S
Zn218 O241 1.929 . S
Zn219 O228 1.931 . S
Zn219 O232 1.950 . S
Zn219 O234 1.938 . S
Zn219 O235 1.954 . S
Zn220 O229 2.120 . S
Zn220 O234 1.992 . S
Zn220 O237 1.988 . S
Zn220 O240 2.121 . S
Zn221 O223 1.932 . S
Zn221 O230 1.951 . S
Zn221 O231 2.020 . S
Zn221 O234 1.885 . S
O222 C226 1.259 . A
O223 C226 1.301 . A
C224 O229 1.205 . A
C224 O230 1.262 . A
C225 O237 1.288 . A
C225 O238 1.229 . A
O227 H239 0.839 . S
O231 C242 1.267 . A
O232 C242 1.213 . A
C233 O240 1.171 . A
C233 O241 1.333 . A
C243 O262 1.282 . A
C243 O263 1.233 . A
C244 O254 1.291 . A
C244 O255 1.274 . A
Zn245 O249 1.930 . S
Zn245 O261 1.948 . S
Zn245 O263 2.053 . S
Zn245 O265 2.212 . S
Zn245 O268 1.929 . S
Zn246 O255 1.931 . S
Zn246 O259 1.950 . S
Zn246 O261 1.938 . S
Zn246 O262 1.954 . S
Zn247 O256 2.120 . S
Zn247 O261 1.992 . S
Zn247 O264 1.988 . S
Zn247 O267 2.121 . S
Zn248 O250 1.932 . S
Zn248 O257 1.951 . S
Zn248 O258 2.020 . S
Zn248 O261 1.885 . S
O249 C253 1.259 . A
O250 C253 1.301 . A
C251 O256 1.205 . A
C251 O257 1.262 . A
C252 O264 1.288 . A
C252 O265 1.229 . A
O254 H266 0.839 . S
O258 C269 1.267 . A
O259 C269 1.213 . A
C260 O267 1.171 . A
C260 O268 1.333 . A
C270 O289 1.282 . A
C270 O290 1.233 . A
C271 O281 1.291 . A
C271 O282 1.274 . A
Zn272 O276 1.930 . S
Zn272 O288 1.948 . S
Zn272 O290 2.053 . S
Zn272 O292 2.212 . S
Zn272 O295 1.929 . S
Zn273 O282 1.931 . S
Zn273 O286 1.950 . S
Zn273 O288 1.938 . S
Zn273 O289 1.954 . S
Zn274 O283 2.120 . S
Zn274 O288 1.992 . S
Zn274 O291 1.988 . S
Zn274 O294 2.121 . S
Zn275 O277 1.932 . S
Zn275 O284 1.951 . S
Zn275 O285 2.020 . S
Zn275 O288 1.885 . S
O276 C280 1.259 . A
O277 C280 1.301 . A
C278 O283 1.205 . A
C278 O284 1.262 . A
C279 O291 1.288 . A
C279 O292 1.229 . A
O281 H293 0.839 . S
O285 C296 1.267 . A
O286 C296 1.213 . A
C287 O294 1.171 . A
C287 O295 1.333 . A
C297 O316 1.282 . A
C297 O317 1.233 . A
C298 O308 1.291 . A
C298 O309 1.274 . A
Zn299 O303 1.930 . S
Zn299 O315 1.948 . S
Zn299 O317 2.053 . S
Zn299 O319 2.212 . S
Zn299 O322 1.929 . S
Zn300 O309 1.931 . S
Zn300 O313 1.950 . S
Zn300 O315 1.938 . S
Zn300 O316 1.954 . S
Zn301 O310 2.120 . S
Zn301 O315 1.992 . S
Zn301 O318 1.988 . S
Zn301 O321 2.121 . S
Zn302 O304 1.932 . S
Zn302 O311 1.951 . S
Zn302 O312 2.020 . S
Zn302 O315 1.885 . S
O303 C307 1.259 . A
O304 C307 1.301 . A
C305 O310 1.205 . A
C305 O311 1.262 . A
C306 O318 1.288 . A
C306 O319 1.229 . A
O308 H320 0.839 . S
O312 C323 1.267 . A
O313 C323 1.213 . A
C314 O321 1.171 . A
C314 O322 1.333 . A
C324 O343 1.282 . A
C324 O344 1.233 . A
C325 O335 1.291 . A
C325 O336 1.274 . A
Zn326 O330 1.930 . S
Zn326 O342 1.948 . S
Zn326 O344 2.053 . S
Zn326 O346 2.212 . S
Zn326 O349 1.929 . S
Zn327 O336 1.931 . S
Zn327 O340 1.950 . S
Zn327 O342 1.938 . S
Zn327 O343 1.954 . S
Zn328 O337 2.120 . S
Zn328 O342 1.992 . S
Zn328 O345 1.988 . S
Zn328 O348 2.121 . S
Zn329 O331 1.932 . S
Zn329 O338 1.951 . S
Zn329 O339 2.020 . S
Zn329 O342 1.885 . S
O330 C334 1.259 . A
O331 C334 1.301 . A
C332 O337 1.205 . A
C332 O338 1.262 . A
C333 O345 1.288 . A
C333 O346 1.229 . A
O335 H347 0.839 . S
O339 C350 1.267 . A
O340 C350 1.213 . A
C341 O348 1.171 . A
C341 O349 1.333 . A
C351 O370 1.282 . A
C351 O371 1.233 . A
C352 O362 1.291 . A
C352 O363 1.274 . A
Zn353 O357 1.930 . S
Zn353 O369 1.948 . S
Zn353 O371 2.053 . S
Zn353 O373 2.212 . S
Zn353 O376 1.929 . S
Zn354 O363 1.931 . S
Zn354 O367 1.950 . S
Zn354 O369 1.938 . S
Zn354 O370 1.954 . S
Zn355 O364 2.120 . S
Zn355 O369 1.992 . S
Zn355 O372 1.988 . S
Zn355 O375 2.121 . S
Zn356 O358 1.932 . S
Zn356 O365 1.951 . S
Zn356 O366 2.020 . S
Zn356 O369 1.885 . S
O357 C361 1.259 . A
O358 C361 1.301 . A
C359 O364 1.205 . A
C359 O365 1.262 . A
C360 O372 1.288 . A
C360 O373 1.229 . A
O362 H374 0.839 . S
O366 C377 1.267 . A
O367 C377 1.213 . A
C368 O375 1.171 . A
C368 O376 1.333 . A
C378 O397 1.282 . A
C378 O398 1.233 . A
C379 O389 1.291 . A
C379 O390 1.274 . A
Zn380 O384 1.930 . S
Zn380 O396 1.948 . S
Zn380 O398 2.053 . S
Zn380 O400 2.212 . S
Zn380 O403 1.929 . S
Zn381 O390 1.931 . S
Zn381 O394 1.950 . S
Zn381 O396 1.938 . S
Zn381 O397 1.954 . S
Zn382 O391 2.120 . S
Zn382 O396 1.992 . S
Zn382 O399 1.988 . S
Zn382 O402 2.121 . S
Zn383 O385 1.932 . S
Zn383 O392 1.951 . S
Zn383 O393 2.020 . S
Zn383 O396 1.885 . S
O384 C388 1.259 . A
O385 C388 1.301 . A
C386 O391 1.205 . A
C386 O392 1.262 . A
C387 O399 1.288 . A
C387 O400 1.229 . A
O389 H401 0.839 . S
O393 C404 1.267 . A
O394 C404 1.213 . A
C395 O402 1.171 . A
C395 O403 1.333 . A
C405 O424 1.282 . A
C405 O425 1.233 . A
C406 O416 1.291 . A
C406 O417 1.274 . A
Zn407 O411 1.930 . S
Zn407 O423 1.948 . S
Zn407 O425 2.053 . S
Zn407 O427 2.212 . S
Zn407 O430 1.929 . S
Zn408 O417 1.931 . S
Zn408 O421 1.950 . S
Zn408 O423 1.938 . S
Zn408 O424 1.954 . S
Zn409 O418 2.120 . S
Zn409 O423 1.992 . S
Zn409 O426 1.988 . S
Zn409 O429 2.121 . S
Zn410 O412 1.932 . S
Zn410 O419 1.951 . S
Zn410 O420 2.020 . S
Zn410 O423 1.885 . S
O411 C415 1.259 . A
O412 C415 1.301 . A
C413 O418 1.205 . A
C413 O419 1.262 . A
C414 O426 1.288 . A
C414 O427 1.229 . A
O416 H428 0.839 . S
O420 C431 1.267 . A
O421 C431 1.213 . A
C422 O429 1.171 . A
C422 O430 1.333 . A
C432 O451 1.282 . A
C432 O452 1.233 . A
C433 O443 1.291 . A
C433 O444 1.274 . A
Zn434 O438 1.930 . S
Zn434 O450 1.948 . S
Zn434 O452 2.053 . S
Zn434 O454 2.212 . S
Zn434 O457 1.929 . S
Zn435 O444 1.931 . S
Zn435 O448 1.950 . S
Zn435 O450 1.938 . S
Zn435 O451 1.954 . S
Zn436 O445 2.120 . S
Zn436 O450 1.992 . S
Zn436 O453 1.988 . S
Zn436 O456 2.121 . S
Zn437 O439 1.932 . S
Zn437 O446 1.951 . S
Zn437 O447 2.020 . S
Zn437 O450 1.885 . S
O438 C442 1.259 . A
O439 C442 1.301 . A
C440 O445 1.205 . A
C440 O446 1.262 . A
C441 O453 1.288 . A
C441 O454 1.229 . A
O443 H455 0.839 . S
O447 C458 1.267 . A
O448 C458 1.213 . A
C449 O456 1.171 . A
C449 O457 1.333 . A
C459 O478 1.282 . A
C459 O479 1.233 . A
C460 O470 1.291 . A
C460 O471 1.274 . A
Zn461 O465 1.930 . S
Zn461 O477 1.948 . S
Zn461 O479 2.053 . S
Zn461 O481 2.212 . S
Zn461 O484 1.929 . S
Zn462 O471 1.931 . S
Zn462 O475 1.950 . S
Zn462 O477 1.938 . S
Zn462 O478 1.954 . S
Zn463 O472 2.120 . S
Zn463 O477 1.992 . S
Zn463 O480 1.988 . S
Zn463 O483 2.121 . S
Zn464 O466 1.932 . S
Zn464 O473 1.951 . S
Zn464 O474 2.020 . S
Zn464 O477 1.885 . S
O465 C469 1.259 . A
O466 C469 1.301 . A
C467 O472 1.205 . A
C467 O473 1.262 . A
C468 O480 1.288 . A
C468 O481 1.229 . A
O470 H482 0.839 . S
O474 C485 1.267 . A
O475 C485 1.213 . A
C476 O483 1.171 . A
C476 O484 1.333 . A
C486 O505 1.282 . A
C486 O506 1.233 . A
C487 O497 1.291 . A
C487 O498 1.274 . A
Zn488 O492 1.930 . S
Zn488 O504 1.948 . S
Zn488 O506 2.053 . S
Zn488 O508 2.212 . S
Zn488 O511 1.929 . S
Zn489 O498 1.931 . S
Zn489 O502 1.950 . S
Zn489 O504 1.938 . S
Zn489 O505 1.954 . S
Zn490 O499 2.120 . S
Zn490 O504 1.992 . S
Zn490 O507 1.988 . S
Zn490 O510 2.121 . S
Zn491 O493 1.932 . S
Zn491 O500 1.951 . S
Zn491 O501 2.020 . S
Zn491 O504 1.885 . S
O492 C496 1.259 . A
O493 C496 1.301 . A
C494 O499 1.205 . A
C494 O500 1.262 . A
C495 O507 1.288 . A
C495 O508 1.229 . A
O497 H509 0.839 . S
O501 C512 1.267 . A
O502 C512 1.213 . A
C503 O510 1.171 . A
C503 O511 1.333 . A
C513 O532 1.282 . A
C513 O533 1.233 . A
C514 O524 1.291 . A
C514 O525 1.274 . A
Zn515 O519 1.930 . S
Zn515 O531 1.948 . S
Zn515 O533 2.053 . S
Zn515 O535 2.212 . S
Zn515 O538 1.929 . S
Zn516 O525 1.931 . S
Zn516 O529 1.950 . S
Zn516 O531 1.938 . S
Zn516 O532 1.954 . S
Zn517 O526 2.120 . S
Zn517 O531 1.992 . S
Zn517 O534 1.988 . S
Zn517 O537 2.121 . S
Zn518 O520 1.932 . S
Zn518 O527 1.951 . S
Zn518 O528 2.020 . S
Zn518 O531 1.885 . S
O519 C523 1.259 . A
O520 C523 1.301 . A
C521 O526 1.205 . A
C521 O527 1.262 . A
C522 O534 1.288 . A
C522 O535 1.229 . A
O524 H536 0.839 . S
O528 C539 1.267 . A
O529 C539 1.213 . A
C530 O537 1.171 . A
C530 O538 1.333 . A
C540 O559 1.282 . A
C540 O560 1.233 . A
C541 O551 1.291 . A
C541 O552 1.274 . A
Zn542 O546 1.930 . S
Zn542 O558 1.948 . S
Zn542 O560 2.053 . S
Zn542 O562 2.212 . S
Zn542 O565 1.929 . S
Zn543 O552 1.931 . S
Zn543 O556 1.950 . S
Zn543 O558 1.938 . S
Zn543 O559 1.954 . S
Zn544 O553 2.120 . S
Zn544 O558 1.992 . S
Zn544 O561 1.988 . S
Zn544 O564 2.121 . S
Zn545 O547 1.932 . S
Zn545 O554 1.951 . S
Zn545 O555 2.020 . S
Zn545 O558 1.885 . S
O546 C550 1.259 . A
O547 C550 1.301 . A
C548 O553 1.205 . A
C548 O554 1.262 . A
C549 O561 1.288 . A
C549 O562 1.229 . A
O551 H563 0.839 . S
O555 C566 1.267 . A
O556 C566 1.213 . A
C557 O564 1.171 . A
C557 O565 1.333 . A
C567 O586 1.282 . A
C567 O587 1.233 . A
C568 O578 1.291 . A
C568 O579 1.274 . A
Zn569 O573 1.930 . S
Zn569 O585 1.948 . S
Zn569 O587 2.053 . S
Zn569 O589 2.212 . S
Zn569 O592 1.929 . S
Zn570 O579 1.931 . S
Zn570 O583 1.950 . S
Zn570 O585 1.938 . S
Zn570 O586 1.954 . S
Zn571 O580 2.120 . S
Zn571 O585 1.992 . S
Zn571 O588 1.988 . S
Zn571 O591 2.121 . S
Zn572 O574 1.932 . S
Zn572 O581 1.951 . S
Zn572 O582 2.020 . S
Zn572 O585 1.885 . S
O573 C577 1.259 . A
O574 C577 1.301 . A
C575 O580 1.205 . A
C575 O581 1.262 . A
C576 O588 1.288 . A
C576 O589 1.229 . A
O578 H590 0.839 . S
O582 C593 1.267 . A
O583 C593 1.213 . A
C584 O591 1.171 . A
C584 O592 1.333 . A
C594 O613 1.282 . A
C594 O614 1.233 . A
C595 O605 1.291 . A
C595 O606 1.274 . A
Zn596 O600 1.930 . S
Zn596 O612 1.948 . S
Zn596 O614 2.053 . S
Zn596 O616 2.212 . S
Zn596 O619 1.929 . S
Zn597 O606 1.931 . S
Zn597 O610 1.950 . S
Zn597 O612 1.938 . S
Zn597 O613 1.954 . S
Zn598 O607 2.120 . S
Zn598 O612 1.992 . S
Zn598 O615 1.988 . S
Zn598 O618 2.121 . S
Zn599 O601 1.932 . S
Zn599 O608 1.951 . S
Zn599 O609 2.020 . S
Zn599 O612 1.885 . S
O600 C604 1.259 . A
O601 C604 1.301 . A
C602 O607 1.205 . A
C602 O608 1.262 . A
C603 O615 1.288 . A
C603 O616 1.229 . A
O605 H617 0.839 . S
O609 C620 1.267 . A
O610 C620 1.213 . A
C611 O618 1.171 . A
C611 O619 1.333 . A
C621 O640 1.282 . A
C621 O641 1.233 . A
C622 O632 1.291 . A
C622 O633 1.274 . A
Zn623 O627 1.930 . S
Zn623 O639 1.948 . S
Zn623 O641 2.053 . S
Zn623 O643 2.212 . S
Zn623 O646 1.929 . S
Zn624 O633 1.931 . S
Zn624 O637 1.950 . S
Zn624 O639 1.938 . S
Zn624 O640 1.954 . S
Zn625 O634 2.120 . S
Zn625 O639 1.992 . S
Zn625 O642 1.988 . S
Zn625 O645 2.121 . S
Zn626 O628 1.932 . S
Zn626 O635 1.951 . S
Zn626 O636 2.020 . S
Zn626 O639 1.885 . S
O627 C631 1.259 . A
O628 C631 1.301 . A
C629 O634 1.205 . A
C629 O635 1.262 . A
C630 O642 1.288 . A
C630 O643 1.229 . A
O632 H644 0.839 . S
O636 C647 1.267 . A
O637 C647 1.213 . A
C638 O645 1.171 . A
C638 O646 1.333 . A
H648 N657 0.860 . S
C649 H653 0.929 . S
C649 C655 1.348 . A
C649 C659 1.391 . A
H650 C656 0.930 . S
C651 H654 0.930 . S
C651 C656 1.412 . A
C651 C658 1.348 . A
H652 C659 0.929 . S
C655 C656 1.357 . A
C655 N657 1.427 . S
C658 C659 1.366 . A
H660 N669 0.860 . S
C661 H665 0.929 . S
C661 C667 1.348 . A
C661 C671 1.391 . A
H662 C668 0.930 . S
C663 H666 0.930 . S
C663 C668 1.412 . A
C663 C670 1.348 . A
H664 C671 0.929 . S
C667 C668 1.357 . A
C667 N669 1.427 . S
C670 C671 1.366 . A
H672 N681 0.860 . S
C673 H677 0.929 . S
C673 C679 1.348 . A
C673 C683 1.391 . A
H674 C680 0.930 . S
C675 H678 0.930 . S
C675 C680 1.412 . A
C675 C682 1.348 . A
H676 C683 0.929 . S
C679 C680 1.357 . A
C679 N681 1.427 . S
C682 C683 1.366 . A
H684 N693 0.860 . S
C685 H689 0.929 . S
C685 C691 1.348 . A
C685 C695 1.391 . A
H686 C692 0.930 . S
C687 H690 0.930 . S
C687 C692 1.412 . A
C687 C694 1.348 . A
H688 C695 0.929 . S
C691 C692 1.357 . A
C691 N693 1.427 . S
C694 C695 1.366 . A
H696 N705 0.860 . S
C697 H701 0.929 . S
C697 C703 1.348 . A
C697 C707 1.391 . A
H698 C704 0.930 . S
C699 H702 0.930 . S
C699 C704 1.412 . A
C699 C706 1.348 . A
H700 C707 0.929 . S
C703 C704 1.357 . A
C703 N705 1.427 . S
C706 C707 1.366 . A
H708 N717 0.860 . S
C709 H713 0.929 . S
C709 C715 1.348 . A
C709 C719 1.391 . A
H710 C716 0.930 . S
C711 H714 0.930 . S
C711 C716 1.412 . A
C711 C718 1.348 . A
H712 C719 0.929 . S
C715 C716 1.357 . A
C715 N717 1.427 . S
C718 C719 1.366 . A
H720 N729 0.860 . S
C721 H725 0.929 . S
C721 C727 1.348 . A
C721 C731 1.391 . A
H722 C728 0.930 . S
C723 H726 0.930 . S
C723 C728 1.412 . A
C723 C730 1.348 . A
H724 C731 0.929 . S
C727 C728 1.357 . A
C727 N729 1.427 . S
C730 C731 1.366 . A
H732 N741 0.860 . S
C733 H737 0.929 . S
C733 C739 1.348 . A
C733 C743 1.391 . A
H734 C740 0.930 . S
C735 H738 0.930 . S
C735 C740 1.412 . A
C735 C742 1.348 . A
H736 C743 0.929 . S
C739 C740 1.357 . A
C739 N741 1.427 . S
C742 C743 1.366 . A
H744 N753 0.860 . S
C745 H749 0.929 . S
C745 C751 1.348 . A
C745 C755 1.391 . A
H746 C752 0.930 . S
C747 H750 0.930 . S
C747 C752 1.412 . A
C747 C754 1.348 . A
H748 C755 0.929 . S
C751 C752 1.357 . A
C751 N753 1.427 . S
C754 C755 1.366 . A
H756 N765 0.860 . S
C757 H761 0.929 . S
C757 C763 1.348 . A
C757 C767 1.391 . A
H758 C764 0.930 . S
C759 H762 0.930 . S
C759 C764 1.412 . A
C759 C766 1.348 . A
H760 C767 0.929 . S
C763 C764 1.357 . A
C763 N765 1.427 . S
C766 C767 1.366 . A
H768 N777 0.860 . S
C769 H773 0.929 . S
C769 C775 1.348 . A
C769 C779 1.391 . A
H770 C776 0.930 . S
C771 H774 0.930 . S
C771 C776 1.412 . A
C771 C778 1.348 . A
H772 C779 0.929 . S
C775 C776 1.357 . A
C775 N777 1.427 . S
C778 C779 1.366 . A
H780 N789 0.860 . S
C781 H785 0.929 . S
C781 C787 1.348 . A
C781 C791 1.391 . A
H782 C788 0.930 . S
C783 H786 0.930 . S
C783 C788 1.412 . A
C783 C790 1.348 . A
H784 C791 0.929 . S
C787 C788 1.357 . A
C787 N789 1.427 . S
C790 C791 1.366 . A
H792 N801 0.860 . S
C793 H797 0.929 . S
C793 C799 1.348 . A
C793 C803 1.391 . A
H794 C800 0.930 . S
C795 H798 0.930 . S
C795 C800 1.412 . A
C795 C802 1.348 . A
H796 C803 0.929 . S
C799 C800 1.357 . A
C799 N801 1.427 . S
C802 C803 1.366 . A
H804 N813 0.860 . S
C805 H809 0.929 . S
C805 C811 1.348 . A
C805 C815 1.391 . A
H806 C812 0.930 . S
C807 H810 0.930 . S
C807 C812 1.412 . A
C807 C814 1.348 . A
H808 C815 0.929 . S
C811 C812 1.357 . A
C811 N813 1.427 . S
C814 C815 1.366 . A
H816 N825 0.860 . S
C817 H821 0.929 . S
C817 C823 1.348 . A
C817 C827 1.391 . A
H818 C824 0.930 . S
C819 H822 0.930 . S
C819 C824 1.412 . A
C819 C826 1.348 . A
H820 C827 0.929 . S
C823 C824 1.357 . A
C823 N825 1.427 . S
C826 C827 1.366 . A
H828 N837 0.860 . S
C829 H833 0.929 . S
C829 C835 1.348 . A
C829 C839 1.391 . A
H830 C836 0.930 . S
C831 H834 0.930 . S
C831 C836 1.412 . A
C831 C838 1.348 . A
H832 C839 0.929 . S
C835 C836 1.357 . A
C835 N837 1.427 . S
C838 C839 1.366 . A
H840 N849 0.860 . S
C841 H845 0.929 . S
C841 C847 1.348 . A
C841 C851 1.391 . A
H842 C848 0.930 . S
C843 H846 0.930 . S
C843 C848 1.412 . A
C843 C850 1.348 . A
H844 C851 0.929 . S
C847 C848 1.357 . A
C847 N849 1.427 . S
C850 C851 1.366 . A
H852 N861 0.860 . S
C853 H857 0.929 . S
C853 C859 1.348 . A
C853 C863 1.391 . A
H854 C860 0.930 . S
C855 H858 0.930 . S
C855 C860 1.412 . A
C855 C862 1.348 . A
H856 C863 0.929 . S
C859 C860 1.357 . A
C859 N861 1.427 . S
C862 C863 1.366 . A
H864 N873 0.860 . S
C865 H869 0.929 . S
C865 C871 1.348 . A
C865 C875 1.391 . A
H866 C872 0.930 . S
C867 H870 0.930 . S
C867 C872 1.412 . A
C867 C874 1.348 . A
H868 C875 0.929 . S
C871 C872 1.357 . A
C871 N873 1.427 . S
C874 C875 1.366 . A
H876 N885 0.860 . S
C877 H881 0.929 . S
C877 C883 1.348 . A
C877 C887 1.391 . A
H878 C884 0.930 . S
C879 H882 0.930 . S
C879 C884 1.412 . A
C879 C886 1.348 . A
H880 C887 0.929 . S
C883 C884 1.357 . A
C883 N885 1.427 . S
C886 C887 1.366 . A
H888 N897 0.860 . S
C889 H893 0.929 . S
C889 C895 1.348 . A
C889 C899 1.391 . A
H890 C896 0.930 . S
C891 H894 0.930 . S
C891 C896 1.412 . A
C891 C898 1.348 . A
H892 C899 0.929 . S
C895 C896 1.357 . A
C895 N897 1.427 . S
C898 C899 1.366 . A
H900 N909 0.860 . S
C901 H905 0.929 . S
C901 C907 1.348 . A
C901 C911 1.391 . A
H902 C908 0.930 . S
C903 H906 0.930 . S
C903 C908 1.412 . A
C903 C910 1.348 . A
H904 C911 0.929 . S
C907 C908 1.357 . A
C907 N909 1.427 . S
C910 C911 1.366 . A
H912 N921 0.860 . S
C913 H917 0.929 . S
C913 C919 1.348 . A
C913 C923 1.391 . A
H914 C920 0.930 . S
C915 H918 0.930 . S
C915 C920 1.412 . A
C915 C922 1.348 . A
H916 C923 0.929 . S
C919 C920 1.357 . A
C919 N921 1.427 . S
C922 C923 1.366 . A
H924 N933 0.860 . S
C925 H929 0.929 . S
C925 C931 1.348 . A
C925 C935 1.391 . A
H926 C932 0.930 . S
C927 H930 0.930 . S
C927 C932 1.412 . A
C927 C934 1.348 . A
H928 C935 0.929 . S
C931 C932 1.357 . A
C931 N933 1.427 . S
C934 C935 1.366 . A
H936 N945 0.860 . S
C937 H941 0.929 . S
C937 C943 1.348 . A
C937 C947 1.391 1_455 A
H938 C944 0.930 . S
C939 H942 0.930 . S
C939 C944 1.412 1_655 A
C939 C946 1.348 . A
H940 C947 0.929 . S
C943 C944 1.357 . A
C943 N945 1.427 . S
C946 C947 1.366 . A
H948 N957 0.860 . S
C949 H953 0.929 . S
C949 C955 1.348 . A
C949 C959 1.391 1_565 A
H950 C956 0.930 . S
C951 H954 0.930 . S
C951 C956 1.412 1_545 A
C951 C958 1.348 . A
H952 C959 0.929 . S
C955 C956 1.357 . A
C955 N957 1.427 . S
C958 C959 1.366 . A
H960 N969 0.860 . S
C961 H965 0.929 . S
C961 C967 1.348 . A
C961 C971 1.391 1_455 A
H962 C968 0.930 . S
C963 H966 0.930 . S
C963 C968 1.412 1_655 A
C963 C970 1.348 . A
H964 C971 0.929 . S
C967 C968 1.357 . A
C967 N969 1.427 . S
C970 C971 1.366 . A
H972 N981 0.860 . S
C973 H977 0.929 . S
C973 C979 1.348 . A
C973 C983 1.391 1_554 A
H974 C980 0.930 . S
C975 H978 0.930 . S
C975 C980 1.412 1_556 A
C975 C982 1.348 . A
H976 C983 0.929 . S
C979 C980 1.357 . A
C979 N981 1.427 . S
C982 C983 1.366 . A
H984 N993 0.860 . S
C985 H989 0.929 . S
C985 C991 1.348 . A
C985 C995 1.391 1_545 A
H986 C992 0.930 . S
C987 H990 0.930 . S
C987 C992 1.412 1_565 A
C987 C994 1.348 . A
H988 C995 0.929 . S
C991 C992 1.357 . A
C991 N993 1.427 . S
C994 C995 1.366 . A
H996 N1005 0.860 . S
C997 H1001 0.929 . S
C997 C1003 1.348 . A
C997 C1007 1.391 1_565 A
H998 C1004 0.930 . S
C999 H1002 0.930 . S
C999 C1004 1.412 1_545 A
C999 C1006 1.348 . A
H1000 C1007 0.929 . S
C1003 C1004 1.357 . A
C1003 N1005 1.427 . S
C1006 C1007 1.366 . A
H1008 N1017 0.860 . S
C1009 H1013 0.950 . S
C1009 C1015 1.371 . A
C1009 C1019 1.348 1_655 A
H1010 C1016 0.930 . S
C1011 H1014 0.930 . S
C1011 C1016 1.412 1_455 A
C1011 C1018 1.348 . A
H1012 C1019 0.929 . S
C1015 C1016 1.357 . A
C1015 N1017 1.427 . S
C1018 C1019 1.366 . A
H1020 N1029 0.860 . S
C1021 H1025 0.951 . S
C1021 C1027 1.372 . A
C1021 C1031 1.347 1_545 A
H1022 C1028 0.930 . S
C1023 H1026 0.930 . S
C1023 C1028 1.412 1_565 A
C1023 C1030 1.348 . A
H1024 C1031 0.929 . S
C1027 C1028 1.357 . A
C1027 N1029 1.427 . S
C1030 C1031 1.366 . A
H1032 N1041 0.860 . S
C1033 H1037 0.929 . S
C1033 C1039 1.348 . A
C1033 C1043 1.391 1_655 A
H1034 C1040 0.930 . S
C1035 H1038 0.930 . S
C1035 C1040 1.412 1_455 A
C1035 C1042 1.348 . A
H1036 C1043 0.929 . S
C1039 C1040 1.357 . A
C1039 N1041 1.427 . S
C1042 C1043 1.366 . A
H1044 N1053 0.860 . S
C1045 H1049 0.929 . S
C1045 C1051 1.348 . A
C1045 C1055 1.391 1_554 A
H1046 C1052 0.930 . S
C1047 H1050 0.930 . S
C1047 C1052 1.412 1_556 A
C1047 C1054 1.348 . A
H1048 C1055 0.929 . S
C1051 C1052 1.357 . A
C1051 N1053 1.427 . S
C1054 C1055 1.366 . A
H1056 N1065 0.860 . S
C1057 H1061 0.929 . S
C1057 C1063 1.348 . A
C1057 C1067 1.391 1_554 A
H1058 C1064 0.930 . S
C1059 H1062 0.930 . S
C1059 C1064 1.412 1_556 A
C1059 C1066 1.348 . A
H1060 C1067 0.929 . S
C1063 C1064 1.357 . A
C1063 N1065 1.427 . S
C1066 C1067 1.366 . A
H1068 N1077 0.860 . S
C1069 H1073 0.952 . S
C1069 C1075 1.373 . A
C1069 C1079 1.345 1_554 A
H1070 C1076 0.930 . S
C1071 H1074 0.930 . S
C1071 C1076 1.412 1_556 A
C1071 C1078 1.348 . A
H1072 C1079 0.929 . S
C1075 C1076 1.357 . A
C1075 N1077 1.427 . S
C1078 C1079 1.366 . A
H1080 N1089 0.860 . S
C1081 H1085 0.929 . S
C1081 C1087 1.348 . A
C1081 C1091 1.391 . A
H1082 C1088 0.930 . S
C1083 H1086 0.930 . S
C1083 C1088 1.412 . A
C1083 C1090 1.348 . A
H1084 C1091 0.929 . S
C1087 C1088 1.357 . A
C1087 N1089 1.427 . S
C1090 C1091 1.366 . A
H1092 N1101 0.860 . S
C1093 H1097 0.929 . S
C1093 C1099 1.348 . A
C1093 C1103 1.391 . A
H1094 C1100 0.930 . S
C1095 H1098 0.930 . S
C1095 C1100 1.412 . A
C1095 C1102 1.348 . A
H1096 C1103 0.929 . S
C1099 C1100 1.357 . A
C1099 N1101 1.427 . S
C1102 C1103 1.366 . A
H1104 N1113 0.860 . S
C1105 H1109 0.929 . S
C1105 C1111 1.348 . A
C1105 C1115 1.391 . A
H1106 C1112 0.930 . S
C1107 H1110 0.930 . S
C1107 C1112 1.412 . A
C1107 C1114 1.348 . A
H1108 C1115 0.929 . S
C1111 C1112 1.357 . A
C1111 N1113 1.427 . S
C1114 C1115 1.366 . A
H1116 N1125 0.860 . S
C1117 H1121 0.929 . S
C1117 C1123 1.348 . A
C1117 C1127 1.391 . A
H1118 C1124 0.930 . S
C1119 H1122 0.930 . S
C1119 C1124 1.412 . A
C1119 C1126 1.348 . A
H1120 C1127 0.929 . S
C1123 C1124 1.357 . A
C1123 N1125 1.427 . S
C1126 C1127 1.366 . A
H1128 N1137 0.860 . S
C1129 H1133 0.929 . S
C1129 C1135 1.348 . A
C1129 C1139 1.391 . A
H1130 C1136 0.930 . S
C1131 H1134 0.930 . S
C1131 C1136 1.412 . A
C1131 C1138 1.348 . A
H1132 C1139 0.929 . S
C1135 C1136 1.357 . A
C1135 N1137 1.427 . S
C1138 C1139 1.366 . A
H1140 N1149 0.860 . S
C1141 H1145 0.929 . S
C1141 C1147 1.348 . A
C1141 C1151 1.391 . A
H1142 C1148 0.930 . S
C1143 H1146 0.930 . S
C1143 C1148 1.412 . A
C1143 C1150 1.348 . A
H1144 C1151 0.929 . S
C1147 C1148 1.357 . A
C1147 N1149 1.427 . S
C1150 C1151 1.366 . A
H1152 N1161 0.860 . S
C1153 H1157 0.929 . S
C1153 C1159 1.348 . A
C1153 C1163 1.391 . A
H1154 C1160 0.930 . S
C1155 H1158 0.930 . S
C1155 C1160 1.412 . A
C1155 C1162 1.348 . A
H1156 C1163 0.929 . S
C1159 C1160 1.357 . A
C1159 N1161 1.427 . S
C1162 C1163 1.366 . A
H1164 N1173 0.860 . S
C1165 H1169 0.929 . S
C1165 C1171 1.348 . A
C1165 C1175 1.391 . A
H1166 C1172 0.930 . S
C1167 H1170 0.930 . S
C1167 C1172 1.412 . A
C1167 C1174 1.348 . A
H1168 C1175 0.929 . S
C1171 C1172 1.357 . A
C1171 N1173 1.427 . S
C1174 C1175 1.366 . A
H1176 N1185 0.860 . S
C1177 H1181 0.929 . S
C1177 C1183 1.348 . A
C1177 C1187 1.391 . A
H1178 C1184 0.930 . S
C1179 H1182 0.930 . S
C1179 C1184 1.412 . A
C1179 C1186 1.348 . A
H1180 C1187 0.929 . S
C1183 C1184 1.357 . A
C1183 N1185 1.427 . S
C1186 C1187 1.366 . A
H1188 N1197 0.860 . S
C1189 H1193 0.929 . S
C1189 C1195 1.348 . A
C1189 C1199 1.391 . A
H1190 C1196 0.930 . S
C1191 H1194 0.930 . S
C1191 C1196 1.412 . A
C1191 C1198 1.348 . A
H1192 C1199 0.929 . S
C1195 C1196 1.357 . A
C1195 N1197 1.427 . S
C1198 C1199 1.366 . A
H1200 N1209 0.860 . S
C1201 H1205 0.929 . S
C1201 C1207 1.348 . A
C1201 C1211 1.391 . A
H1202 C1208 0.930 . S
C1203 H1206 0.930 . S
C1203 C1208 1.412 . A
C1203 C1210 1.348 . A
H1204 C1211 0.929 . S
C1207 C1208 1.357 . A
C1207 N1209 1.427 . S
C1210 C1211 1.366 . A
H1212 N1221 0.860 . S
C1213 H1217 0.929 . S
C1213 C1219 1.348 . A
C1213 C1223 1.391 . A
H1214 C1220 0.930 . S
C1215 H1218 0.930 . S
C1215 C1220 1.412 . A
C1215 C1222 1.348 . A
H1216 C1223 0.929 . S
C1219 C1220 1.357 . A
C1219 N1221 1.427 . S
C1222 C1223 1.366 . A
N657 C386 1.375 . S
C658 C17 1.414 . S
N669 C44 1.382 . S
C670 C278 1.421 . S
N681 C305 1.275 . S
C682 C71 1.367 . S
N693 C224 1.365 . S
C694 C98 1.411 . S
N705 C332 1.279 . S
C706 C125 1.370 . S
N717 C413 1.273 . S
C718 C152 1.338 . S
N729 C494 1.386 . S
C730 C179 1.409 . S
N741 C584 1.229 . S
C742 C89 1.353 . S
N753 C260 1.226 . S
C754 C116 1.362 . S
N765 C197 1.380 . S
C766 C233 1.414 . S
N777 C611 1.270 . S
C778 C251 1.361 . S
N789 C359 1.246 . S
C790 C638 1.341 . S
N801 C368 1.382 . S
C802 C35 1.421 . S
N813 C575 1.386 . S
C814 C206 1.412 . S
N825 C422 1.381 . S
C826 C521 1.418 . S
N837 C170 1.283 . S
C838 C449 1.342 . S
N849 C440 1.344 . S
C850 C476 1.404 . S
N861 C467 1.369 . S
C862 C503 1.390 . S
N873 C530 1.374 . S
C874 C548 1.423 . S
N885 C557 1.382 . S
C886 C143 1.419 . S
N897 C395 1.257 . S
C898 C62 1.382 . S
N909 C341 1.234 . S
C910 C602 1.368 . S
N921 C287 1.225 . S
C922 C629 1.360 . S
N933 C8 1.316 . S
C934 C314 1.357 . S
N945 C595 1.397 . S
C946 C1 1.595 . S
N957 C82 1.438 . S
C958 C28 1.634 . S
N969 C109 1.461 . S
C970 C55 1.647 . S
N981 C163 1.392 . S
C982 C136 1.578 . S
N993 C622 1.468 . S
C994 C190 1.651 . S
N1005 C217 1.412 . S
C1006 C352 1.554 . S
N1017 C298 1.684 . S
C1018 C244 1.647 . S
N1029 C271 1.580 . S
C1030 C568 1.569 . S
N1041 C379 1.629 . S
C1042 C325 1.693 . S
N1053 C433 1.403 . S
C1054 C406 1.604 . S
N1065 C460 1.442 . S
C1066 C514 1.546 . S
N1077 C487 1.684 . S
C1078 C541 1.673 . S
N1089 C145 1.292 . S
C1090 C10 1.419 . S
N1101 C37 1.417 . S
C1102 C496 1.431 . S
N1113 C172 1.403 . S
C1114 C64 1.468 . S
N1125 C91 1.296 . S
C1126 C442 1.409 . S
N1137 C118 1.326 . S
C1138 C469 1.400 . S
N1149 C199 1.295 . S
C1150 C415 1.428 . S
N1161 C253 1.353 . S
C1162 C226 1.462 . S
N1173 C388 1.403 . S
C1174 C280 1.420 . S
N1185 C577 1.423 . S
C1186 C307 1.460 . S
N1197 C334 1.335 . S
C1198 C361 1.400 . S
N1209 C604 1.334 . S
C1210 C523 1.456 . S
N1221 C631 1.292 . S
C1222 C550 1.418 . S
