# Generated by pormake.
# Topology lta, (4)-cn, num edge types: 1
# Building blocks:
#     Node 0, Type 0, BuildingBlock: N599, # of connection points: 7
#     Node 1, Type 0, BuildingBlock: N599, # of connection points: 7
#     Node 2, Type 0, BuildingBlock: N599, # of connection points: 7
#     Node 3, Type 0, BuildingBlock: N599, # of connection points: 7
#     Node 4, Type 0, BuildingBlock: N599, # of connection points: 7
#     Node 5, Type 0, BuildingBlock: N599, # of connection points: 7
#     Node 6, Type 0, BuildingBlock: N599, # of connection points: 7
#     Node 7, Type 0, BuildingBlock: N599, # of connection points: 7
#     Node 8, Type 0, BuildingBlock: N599, # of connection points: 7
#     Node 9, Type 0, BuildingBlock: N599, # of connection points: 7
#     Node 10, Type 0, BuildingBlock: N599, # of connection points: 7
#     Node 11, Type 0, BuildingBlock: N599, # of connection points: 7
#     Node 12, Type 0, BuildingBlock: N599, # of connection points: 7
#     Node 13, Type 0, BuildingBlock: N599, # of connection points: 7
#     Node 14, Type 0, BuildingBlock: N599, # of connection points: 7
#     Node 15, Type 0, BuildingBlock: N599, # of connection points: 7
#     Node 16, Type 0, BuildingBlock: N599, # of connection points: 7
#     Node 17, Type 0, BuildingBlock: N599, # of connection points: 7
#     Node 18, Type 0, BuildingBlock: N599, # of connection points: 7
#     Node 19, Type 0, BuildingBlock: N599, # of connection points: 7
#     Node 20, Type 0, BuildingBlock: N599, # of connection points: 7
#     Node 21, Type 0, BuildingBlock: N599, # of connection points: 7
#     Node 22, Type 0, BuildingBlock: N599, # of connection points: 7
#     Node 23, Type 0, BuildingBlock: N599, # of connection points: 7
#     Edge 24, Type (0, 0), BuildingBlock: E63, # of connection points: 2
#     Edge 25, Type (0, 0), BuildingBlock: E63, # of connection points: 2
#     Edge 26, Type (0, 0), BuildingBlock: E63, # of connection points: 2
#     Edge 27, Type (0, 0), BuildingBlock: E63, # of connection points: 2
#     Edge 28, Type (0, 0), BuildingBlock: E63, # of connection points: 2
#     Edge 29, Type (0, 0), BuildingBlock: E63, # of connection points: 2
#     Edge 30, Type (0, 0), BuildingBlock: E63, # of connection points: 2
#     Edge 31, Type (0, 0), BuildingBlock: E63, # of connection points: 2
#     Edge 32, Type (0, 0), BuildingBlock: E63, # of connection points: 2
#     Edge 33, Type (0, 0), BuildingBlock: E63, # of connection points: 2
#     Edge 34, Type (0, 0), BuildingBlock: E63, # of connection points: 2
#     Edge 35, Type (0, 0), BuildingBlock: E63, # of connection points: 2
#     Edge 36, Type (0, 0), BuildingBlock: E63, # of connection points: 2
#     Edge 37, Type (0, 0), BuildingBlock: E63, # of connection points: 2
#     Edge 38, Type (0, 0), BuildingBlock: E63, # of connection points: 2
#     Edge 39, Type (0, 0), BuildingBlock: E63, # of connection points: 2
#     Edge 40, Type (0, 0), BuildingBlock: E63, # of connection points: 2
#     Edge 41, Type (0, 0), BuildingBlock: E63, # of connection points: 2
#     Edge 42, Type (0, 0), BuildingBlock: E63, # of connection points: 2
#     Edge 43, Type (0, 0), BuildingBlock: E63, # of connection points: 2
#     Edge 44, Type (0, 0), BuildingBlock: E63, # of connection points: 2
#     Edge 45, Type (0, 0), BuildingBlock: E63, # of connection points: 2
#     Edge 46, Type (0, 0), BuildingBlock: E63, # of connection points: 2
#     Edge 47, Type (0, 0), BuildingBlock: E63, # of connection points: 2
#     Edge 48, Type (0, 0), BuildingBlock: E63, # of connection points: 2
#     Edge 49, Type (0, 0), BuildingBlock: E63, # of connection points: 2
#     Edge 50, Type (0, 0), BuildingBlock: E63, # of connection points: 2
#     Edge 51, Type (0, 0), BuildingBlock: E63, # of connection points: 2
#     Edge 52, Type (0, 0), BuildingBlock: E63, # of connection points: 2
#     Edge 53, Type (0, 0), BuildingBlock: E63, # of connection points: 2
#     Edge 54, Type (0, 0), BuildingBlock: E63, # of connection points: 2
#     Edge 55, Type (0, 0), BuildingBlock: E63, # of connection points: 2
#     Edge 56, Type (0, 0), BuildingBlock: E63, # of connection points: 2
#     Edge 57, Type (0, 0), BuildingBlock: E63, # of connection points: 2
#     Edge 58, Type (0, 0), BuildingBlock: E63, # of connection points: 2
#     Edge 59, Type (0, 0), BuildingBlock: E63, # of connection points: 2
#     Edge 60, Type (0, 0), BuildingBlock: E63, # of connection points: 2
#     Edge 61, Type (0, 0), BuildingBlock: E63, # of connection points: 2
#     Edge 62, Type (0, 0), BuildingBlock: E63, # of connection points: 2
#     Edge 63, Type (0, 0), BuildingBlock: E63, # of connection points: 2
#     Edge 64, Type (0, 0), BuildingBlock: E63, # of connection points: 2
#     Edge 65, Type (0, 0), BuildingBlock: E63, # of connection points: 2
#     Edge 66, Type (0, 0), BuildingBlock: E63, # of connection points: 2
#     Edge 67, Type (0, 0), BuildingBlock: E63, # of connection points: 2
#     Edge 68, Type (0, 0), BuildingBlock: E63, # of connection points: 2
#     Edge 69, Type (0, 0), BuildingBlock: E63, # of connection points: 2
#     Edge 70, Type (0, 0), BuildingBlock: E63, # of connection points: 2
#     Edge 71, Type (0, 0), BuildingBlock: E63, # of connection points: 2
# Relax obj value: 0.158
# Max RMSD: 0.195
# Mean RMSD: 0.195
data_lta+N599+E63
_symmetry_space_group_name_H-M    P1
_symmetry_Int_Tables_number       1
_symmetry_cell_setting            triclinic
loop_
_symmetry_equiv_pos_as_xyz
'x, y, z'
_cell_length_a     47.109
_cell_length_b     47.109
_cell_length_c     47.109
_cell_angle_alpha  90.000
_cell_angle_beta   90.000
_cell_angle_gamma  90.000
loop_
_atom_site_label
_atom_site_type_symbol
_atom_site_fract_x
_atom_site_fract_y
_atom_site_fract_z
_atom_type_partial_charge
C0 C 0.87534 0.43336 0.71967 0.00000
C1 C 0.94596 0.50025 0.67795 0.00000
Zn2 Zn 0.82823 0.45932 0.68192 0.00000
Zn3 Zn 0.89003 0.48557 0.69431 0.00000
Zn4 Zn 0.85635 0.49165 0.63141 0.00000
Zn5 Zn 0.83500 0.52224 0.68665 0.00000
O6 O 0.80300 0.46842 0.71289 0.00000
O7 O 0.80048 0.51647 0.70804 0.00000
C8 C 0.84579 0.55415 0.63906 0.00000
C9 C 0.79373 0.49284 0.63279 0.00000
C10 C 0.79291 0.49235 0.71917 0.00000
O11 O 0.95440 0.49415 0.70330 0.00000
O12 O 0.92065 0.49634 0.66929 0.00000
O13 O 0.86188 0.53630 0.63025 0.00000
O14 O 0.82859 0.55289 0.65955 0.00000
O15 O 0.85824 0.54194 0.71683 0.00000
O16 O 0.89011 0.51033 0.72748 0.00000
C17 C 0.84009 0.42785 0.63246 0.00000
O18 O 0.85473 0.48996 0.67363 0.00000
O19 O 0.89651 0.44838 0.71149 0.00000
O20 O 0.85083 0.43586 0.71086 0.00000
O21 O 0.81660 0.49764 0.61860 0.00000
O22 O 0.79528 0.47902 0.65486 0.00000
H23 H 0.94099 0.49664 0.71475 0.00000
O24 O 0.85327 0.44729 0.62437 0.00000
O25 O 0.82591 0.42696 0.65694 0.00000
C26 C 0.87885 0.53310 0.73166 0.00000
C27 C 0.56664 0.12467 0.28032 0.00000
C28 C 0.49975 0.05404 0.32204 0.00000
Zn29 Zn 0.54068 0.17178 0.31808 0.00000
Zn30 Zn 0.51443 0.10998 0.30569 0.00000
Zn31 Zn 0.50835 0.14366 0.36859 0.00000
Zn32 Zn 0.47776 0.16500 0.31335 0.00000
O33 O 0.53158 0.19701 0.28711 0.00000
O34 O 0.48353 0.19953 0.29196 0.00000
C35 C 0.44585 0.15421 0.36094 0.00000
C36 C 0.50716 0.20628 0.36721 0.00000
C37 C 0.50765 0.20710 0.28083 0.00000
O38 O 0.50585 0.04561 0.29670 0.00000
O39 O 0.50366 0.07935 0.33071 0.00000
O40 O 0.46370 0.13813 0.36975 0.00000
O41 O 0.44711 0.17142 0.34045 0.00000
O42 O 0.45806 0.14177 0.28317 0.00000
O43 O 0.48967 0.10990 0.27251 0.00000
C44 C 0.57215 0.15992 0.36754 0.00000
O45 O 0.51004 0.14528 0.32637 0.00000
O46 O 0.55162 0.10350 0.28850 0.00000
O47 O 0.56414 0.14918 0.28914 0.00000
O48 O 0.50236 0.18341 0.38139 0.00000
O49 O 0.52098 0.20472 0.34514 0.00000
H50 H 0.50336 0.05902 0.28524 0.00000
O51 O 0.55271 0.14673 0.37563 0.00000
O52 O 0.57304 0.17409 0.34306 0.00000
C53 C 0.46690 0.12116 0.26833 0.00000
C54 C 0.87534 0.56664 0.28033 0.00000
C55 C 0.94596 0.49975 0.32205 0.00000
Zn56 Zn 0.82823 0.54068 0.31808 0.00000
Zn57 Zn 0.89003 0.51443 0.30569 0.00000
Zn58 Zn 0.85635 0.50835 0.36859 0.00000
Zn59 Zn 0.83500 0.47776 0.31335 0.00000
O60 O 0.80300 0.53158 0.28711 0.00000
O61 O 0.80048 0.48353 0.29196 0.00000
C62 C 0.84579 0.44585 0.36094 0.00000
C63 C 0.79373 0.50716 0.36721 0.00000
C64 C 0.79291 0.50765 0.28083 0.00000
O65 O 0.95440 0.50585 0.29670 0.00000
O66 O 0.92066 0.50366 0.33071 0.00000
O67 O 0.86188 0.46370 0.36975 0.00000
O68 O 0.82859 0.44711 0.34045 0.00000
O69 O 0.85824 0.45806 0.28317 0.00000
O70 O 0.89011 0.48967 0.27252 0.00000
C71 C 0.84009 0.57215 0.36754 0.00000
O72 O 0.85473 0.51004 0.32637 0.00000
O73 O 0.89651 0.55162 0.28851 0.00000
O74 O 0.85083 0.56414 0.28914 0.00000
O75 O 0.81660 0.50236 0.38140 0.00000
O76 O 0.79528 0.52098 0.34514 0.00000
H77 H 0.94099 0.50336 0.28525 0.00000
O78 O 0.85327 0.55271 0.37564 0.00000
O79 O 0.82591 0.57304 0.34306 0.00000
C80 C 0.87885 0.46690 0.26834 0.00000
C81 C 0.43336 0.87533 0.28032 0.00000
C82 C 0.50025 0.94596 0.32204 0.00000
Zn83 Zn 0.45932 0.82822 0.31808 0.00000
Zn84 Zn 0.48557 0.89002 0.30569 0.00000
Zn85 Zn 0.49165 0.85634 0.36858 0.00000
Zn86 Zn 0.52224 0.83500 0.31335 0.00000
O87 O 0.46842 0.80299 0.28711 0.00000
O88 O 0.51647 0.80047 0.29196 0.00000
C89 C 0.55415 0.84579 0.36094 0.00000
C90 C 0.49284 0.79372 0.36721 0.00000
C91 C 0.49235 0.79290 0.28083 0.00000
O92 O 0.49415 0.95439 0.29670 0.00000
O93 O 0.49634 0.92065 0.33071 0.00000
O94 O 0.53630 0.86187 0.36975 0.00000
O95 O 0.55289 0.82858 0.34045 0.00000
O96 O 0.54194 0.85823 0.28317 0.00000
O97 O 0.51033 0.89010 0.27251 0.00000
C98 C 0.42785 0.84008 0.36754 0.00000
O99 O 0.48996 0.85472 0.32637 0.00000
O100 O 0.44838 0.89650 0.28850 0.00000
O101 O 0.43586 0.85082 0.28914 0.00000
O102 O 0.49764 0.81659 0.38139 0.00000
O103 O 0.47902 0.79528 0.34514 0.00000
H104 H 0.49664 0.94098 0.28524 0.00000
O105 O 0.44729 0.85327 0.37563 0.00000
O106 O 0.42696 0.82591 0.34306 0.00000
C107 C 0.53310 0.87884 0.26833 0.00000
C108 C 0.12466 0.43336 0.28033 0.00000
C109 C 0.05404 0.50025 0.32205 0.00000
Zn110 Zn 0.17177 0.45932 0.31808 0.00000
Zn111 Zn 0.10997 0.48557 0.30569 0.00000
Zn112 Zn 0.14365 0.49165 0.36859 0.00000
Zn113 Zn 0.16500 0.52224 0.31335 0.00000
O114 O 0.19700 0.46842 0.28711 0.00000
O115 O 0.19952 0.51647 0.29196 0.00000
C116 C 0.15421 0.55415 0.36094 0.00000
C117 C 0.20627 0.49284 0.36721 0.00000
C118 C 0.20709 0.49235 0.28083 0.00000
O119 O 0.04560 0.49415 0.29670 0.00000
O120 O 0.07934 0.49634 0.33071 0.00000
O121 O 0.13812 0.53630 0.36975 0.00000
O122 O 0.17141 0.55289 0.34045 0.00000
O123 O 0.14176 0.54194 0.28317 0.00000
O124 O 0.10989 0.51033 0.27252 0.00000
C125 C 0.15991 0.42785 0.36754 0.00000
O126 O 0.14527 0.48996 0.32637 0.00000
O127 O 0.10349 0.44838 0.28851 0.00000
O128 O 0.14917 0.43586 0.28914 0.00000
O129 O 0.18340 0.49764 0.38140 0.00000
O130 O 0.20472 0.47902 0.34514 0.00000
H131 H 0.05901 0.49664 0.28525 0.00000
O132 O 0.14673 0.44729 0.37564 0.00000
O133 O 0.17409 0.42696 0.34306 0.00000
C134 C 0.12115 0.53310 0.26834 0.00000
C135 C 0.71967 0.56664 0.87534 0.00000
C136 C 0.67795 0.49975 0.94596 0.00000
Zn137 Zn 0.68192 0.54068 0.82823 0.00000
Zn138 Zn 0.69431 0.51443 0.89003 0.00000
Zn139 Zn 0.63141 0.50835 0.85635 0.00000
Zn140 Zn 0.68665 0.47776 0.83500 0.00000
O141 O 0.71289 0.53158 0.80300 0.00000
O142 O 0.70804 0.48353 0.80048 0.00000
C143 C 0.63906 0.44585 0.84579 0.00000
C144 C 0.63279 0.50716 0.79373 0.00000
C145 C 0.71917 0.50765 0.79291 0.00000
O146 O 0.70330 0.50585 0.95440 0.00000
O147 O 0.66929 0.50366 0.92066 0.00000
O148 O 0.63025 0.46370 0.86188 0.00000
O149 O 0.65955 0.44711 0.82859 0.00000
O150 O 0.71683 0.45806 0.85824 0.00000
O151 O 0.72748 0.48967 0.89011 0.00000
C152 C 0.63246 0.57215 0.84009 0.00000
O153 O 0.67363 0.51004 0.85473 0.00000
O154 O 0.71149 0.55162 0.89651 0.00000
O155 O 0.71086 0.56414 0.85083 0.00000
O156 O 0.61860 0.50236 0.81660 0.00000
O157 O 0.65486 0.52098 0.79528 0.00000
H158 H 0.71475 0.50336 0.94099 0.00000
O159 O 0.62437 0.55271 0.85327 0.00000
O160 O 0.65694 0.57304 0.82591 0.00000
C161 C 0.73166 0.46690 0.87885 0.00000
C162 C 0.71967 0.43336 0.12466 0.00000
C163 C 0.67795 0.50025 0.05404 0.00000
Zn164 Zn 0.68192 0.45932 0.17177 0.00000
Zn165 Zn 0.69431 0.48557 0.10997 0.00000
Zn166 Zn 0.63141 0.49165 0.14365 0.00000
Zn167 Zn 0.68665 0.52224 0.16500 0.00000
O168 O 0.71289 0.46842 0.19700 0.00000
O169 O 0.70804 0.51647 0.19952 0.00000
C170 C 0.63906 0.55415 0.15421 0.00000
C171 C 0.63279 0.49284 0.20627 0.00000
C172 C 0.71917 0.49235 0.20709 0.00000
O173 O 0.70330 0.49415 0.04560 0.00000
O174 O 0.66929 0.49634 0.07934 0.00000
O175 O 0.63025 0.53630 0.13812 0.00000
O176 O 0.65955 0.55289 0.17141 0.00000
O177 O 0.71683 0.54194 0.14176 0.00000
O178 O 0.72748 0.51033 0.10989 0.00000
C179 C 0.63246 0.42785 0.15991 0.00000
O180 O 0.67363 0.48996 0.14527 0.00000
O181 O 0.71149 0.44838 0.10349 0.00000
O182 O 0.71086 0.43586 0.14917 0.00000
O183 O 0.61860 0.49764 0.18340 0.00000
O184 O 0.65486 0.47902 0.20472 0.00000
H185 H 0.71475 0.49664 0.05901 0.00000
O186 O 0.62437 0.44729 0.14673 0.00000
O187 O 0.65694 0.42696 0.17409 0.00000
C188 C 0.73166 0.53310 0.12115 0.00000
C189 C 0.56664 0.87533 0.71968 0.00000
C190 C 0.49975 0.94596 0.67796 0.00000
Zn191 Zn 0.54068 0.82822 0.68192 0.00000
Zn192 Zn 0.51443 0.89002 0.69431 0.00000
Zn193 Zn 0.50835 0.85634 0.63142 0.00000
Zn194 Zn 0.47776 0.83500 0.68665 0.00000
O195 O 0.53158 0.80299 0.71289 0.00000
O196 O 0.48353 0.80047 0.70804 0.00000
C197 C 0.44585 0.84579 0.63906 0.00000
C198 C 0.50716 0.79372 0.63279 0.00000
C199 C 0.50765 0.79290 0.71917 0.00000
O200 O 0.50585 0.95439 0.70330 0.00000
O201 O 0.50366 0.92065 0.66929 0.00000
O202 O 0.46370 0.86187 0.63025 0.00000
O203 O 0.44711 0.82858 0.65955 0.00000
O204 O 0.45806 0.85823 0.71683 0.00000
O205 O 0.48967 0.89010 0.72749 0.00000
C206 C 0.57215 0.84008 0.63246 0.00000
O207 O 0.51004 0.85472 0.67363 0.00000
O208 O 0.55162 0.89650 0.71150 0.00000
O209 O 0.56414 0.85082 0.71086 0.00000
O210 O 0.50236 0.81660 0.61861 0.00000
O211 O 0.52098 0.79528 0.65486 0.00000
H212 H 0.50336 0.94098 0.71476 0.00000
O213 O 0.55271 0.85327 0.62437 0.00000
O214 O 0.57304 0.82591 0.65694 0.00000
C215 C 0.46690 0.87884 0.73167 0.00000
C216 C 0.28033 0.87534 0.56664 0.00000
C217 C 0.32205 0.94597 0.49975 0.00000
Zn218 Zn 0.31808 0.82823 0.54068 0.00000
Zn219 Zn 0.30569 0.89003 0.51443 0.00000
Zn220 Zn 0.36859 0.85635 0.50835 0.00000
Zn221 Zn 0.31335 0.83501 0.47776 0.00000
O222 O 0.28711 0.80300 0.53158 0.00000
O223 O 0.29196 0.80048 0.48353 0.00000
C224 C 0.36094 0.84580 0.44585 0.00000
C225 C 0.36721 0.79373 0.50716 0.00000
C226 C 0.28083 0.79291 0.50765 0.00000
O227 O 0.29670 0.95440 0.50585 0.00000
O228 O 0.33071 0.92066 0.50366 0.00000
O229 O 0.36975 0.86188 0.46370 0.00000
O230 O 0.34045 0.82859 0.44711 0.00000
O231 O 0.28317 0.85824 0.45806 0.00000
O232 O 0.27252 0.89011 0.48967 0.00000
C233 C 0.36754 0.84009 0.57215 0.00000
O234 O 0.32637 0.85473 0.51004 0.00000
O235 O 0.28851 0.89651 0.55162 0.00000
O236 O 0.28914 0.85083 0.56414 0.00000
O237 O 0.38140 0.81660 0.50236 0.00000
O238 O 0.34514 0.79529 0.52098 0.00000
H239 H 0.28525 0.94099 0.50336 0.00000
O240 O 0.37563 0.85328 0.55271 0.00000
O241 O 0.34306 0.82592 0.57304 0.00000
C242 C 0.26834 0.87885 0.46690 0.00000
C243 C 0.12466 0.71967 0.43336 0.00000
C244 C 0.05404 0.67795 0.50025 0.00000
Zn245 Zn 0.17177 0.68192 0.45932 0.00000
Zn246 Zn 0.10998 0.69431 0.48557 0.00000
Zn247 Zn 0.14365 0.63141 0.49165 0.00000
Zn248 Zn 0.16500 0.68665 0.52224 0.00000
O249 O 0.19700 0.71289 0.46842 0.00000
O250 O 0.19952 0.70804 0.51647 0.00000
C251 C 0.15421 0.63906 0.55415 0.00000
C252 C 0.20628 0.63279 0.49284 0.00000
C253 C 0.20710 0.71917 0.49235 0.00000
O254 O 0.04560 0.70330 0.49415 0.00000
O255 O 0.07935 0.66929 0.49634 0.00000
O256 O 0.13813 0.63025 0.53630 0.00000
O257 O 0.17141 0.65955 0.55289 0.00000
O258 O 0.14176 0.71683 0.54194 0.00000
O259 O 0.10990 0.72748 0.51033 0.00000
C260 C 0.15991 0.63246 0.42785 0.00000
O261 O 0.14528 0.67363 0.48996 0.00000
O262 O 0.10350 0.71149 0.44838 0.00000
O263 O 0.14918 0.71086 0.43586 0.00000
O264 O 0.18340 0.61860 0.49764 0.00000
O265 O 0.20472 0.65486 0.47902 0.00000
H266 H 0.05902 0.71475 0.49664 0.00000
O267 O 0.14673 0.62437 0.44729 0.00000
O268 O 0.17409 0.65694 0.42696 0.00000
C269 C 0.12116 0.73166 0.53310 0.00000
C270 C 0.71967 0.12466 0.56664 0.00000
C271 C 0.67795 0.05403 0.49975 0.00000
Zn272 Zn 0.68192 0.17177 0.54068 0.00000
Zn273 Zn 0.69431 0.10997 0.51443 0.00000
Zn274 Zn 0.63141 0.14365 0.50835 0.00000
Zn275 Zn 0.68665 0.16499 0.47776 0.00000
O276 O 0.71289 0.19700 0.53158 0.00000
O277 O 0.70804 0.19952 0.48353 0.00000
C278 C 0.63906 0.15420 0.44585 0.00000
C279 C 0.63279 0.20627 0.50716 0.00000
C280 C 0.71917 0.20709 0.50765 0.00000
O281 O 0.70330 0.04560 0.50585 0.00000
O282 O 0.66929 0.07934 0.50366 0.00000
O283 O 0.63025 0.13812 0.46370 0.00000
O284 O 0.65955 0.17141 0.44711 0.00000
O285 O 0.71683 0.14176 0.45806 0.00000
O286 O 0.72748 0.10989 0.48967 0.00000
C287 C 0.63246 0.15991 0.57215 0.00000
O288 O 0.67363 0.14527 0.51004 0.00000
O289 O 0.71149 0.10349 0.55162 0.00000
O290 O 0.71086 0.14917 0.56414 0.00000
O291 O 0.61860 0.18340 0.50236 0.00000
O292 O 0.65486 0.20471 0.52098 0.00000
H293 H 0.71475 0.05901 0.50336 0.00000
O294 O 0.62437 0.14672 0.55271 0.00000
O295 O 0.65694 0.17408 0.57304 0.00000
C296 C 0.73166 0.12115 0.46690 0.00000
C297 C 0.87534 0.71967 0.56664 0.00000
C298 C 0.94596 0.67795 0.49975 0.00000
Zn299 Zn 0.82823 0.68192 0.54068 0.00000
Zn300 Zn 0.89002 0.69431 0.51443 0.00000
Zn301 Zn 0.85635 0.63141 0.50835 0.00000
Zn302 Zn 0.83500 0.68665 0.47776 0.00000
O303 O 0.80300 0.71289 0.53158 0.00000
O304 O 0.80048 0.70804 0.48353 0.00000
C305 C 0.84579 0.63906 0.44585 0.00000
C306 C 0.79372 0.63279 0.50716 0.00000
C307 C 0.79290 0.71917 0.50765 0.00000
O308 O 0.95440 0.70330 0.50585 0.00000
O309 O 0.92065 0.66929 0.50366 0.00000
O310 O 0.86187 0.63025 0.46370 0.00000
O311 O 0.82859 0.65955 0.44711 0.00000
O312 O 0.85824 0.71683 0.45806 0.00000
O313 O 0.89010 0.72748 0.48967 0.00000
C314 C 0.84009 0.63246 0.57215 0.00000
O315 O 0.85472 0.67363 0.51004 0.00000
O316 O 0.89650 0.71149 0.55162 0.00000
O317 O 0.85082 0.71086 0.56414 0.00000
O318 O 0.81660 0.61860 0.50236 0.00000
O319 O 0.79528 0.65486 0.52098 0.00000
H320 H 0.94098 0.71475 0.50336 0.00000
O321 O 0.85327 0.62437 0.55271 0.00000
O322 O 0.82591 0.65694 0.57304 0.00000
C323 C 0.87884 0.73166 0.46690 0.00000
C324 C 0.12466 0.28033 0.56664 0.00000
C325 C 0.05404 0.32205 0.49975 0.00000
Zn326 Zn 0.17177 0.31808 0.54068 0.00000
Zn327 Zn 0.10998 0.30569 0.51443 0.00000
Zn328 Zn 0.14365 0.36859 0.50835 0.00000
Zn329 Zn 0.16500 0.31335 0.47776 0.00000
O330 O 0.19700 0.28711 0.53158 0.00000
O331 O 0.19952 0.29196 0.48353 0.00000
C332 C 0.15421 0.36094 0.44585 0.00000
C333 C 0.20628 0.36721 0.50716 0.00000
C334 C 0.20710 0.28083 0.50765 0.00000
O335 O 0.04560 0.29670 0.50585 0.00000
O336 O 0.07935 0.33071 0.50366 0.00000
O337 O 0.13813 0.36975 0.46370 0.00000
O338 O 0.17141 0.34045 0.44711 0.00000
O339 O 0.14176 0.28317 0.45806 0.00000
O340 O 0.10990 0.27252 0.48967 0.00000
C341 C 0.15991 0.36754 0.57215 0.00000
O342 O 0.14528 0.32637 0.51004 0.00000
O343 O 0.10350 0.28851 0.55162 0.00000
O344 O 0.14918 0.28914 0.56414 0.00000
O345 O 0.18340 0.38140 0.50236 0.00000
O346 O 0.20472 0.34514 0.52098 0.00000
H347 H 0.05902 0.28525 0.50336 0.00000
O348 O 0.14673 0.37563 0.55271 0.00000
O349 O 0.17409 0.34306 0.57304 0.00000
C350 C 0.12116 0.26834 0.46690 0.00000
C351 C 0.28033 0.12466 0.43336 0.00000
C352 C 0.32205 0.05403 0.50025 0.00000
Zn353 Zn 0.31808 0.17177 0.45932 0.00000
Zn354 Zn 0.30569 0.10997 0.48557 0.00000
Zn355 Zn 0.36859 0.14365 0.49165 0.00000
Zn356 Zn 0.31335 0.16499 0.52224 0.00000
O357 O 0.28711 0.19700 0.46842 0.00000
O358 O 0.29196 0.19952 0.51647 0.00000
C359 C 0.36094 0.15420 0.55415 0.00000
C360 C 0.36721 0.20627 0.49284 0.00000
C361 C 0.28083 0.20709 0.49235 0.00000
O362 O 0.29670 0.04560 0.49415 0.00000
O363 O 0.33071 0.07934 0.49634 0.00000
O364 O 0.36975 0.13812 0.53630 0.00000
O365 O 0.34045 0.17141 0.55289 0.00000
O366 O 0.28317 0.14176 0.54194 0.00000
O367 O 0.27252 0.10989 0.51033 0.00000
C368 C 0.36754 0.15991 0.42785 0.00000
O369 O 0.32637 0.14527 0.48996 0.00000
O370 O 0.28851 0.10349 0.44838 0.00000
O371 O 0.28914 0.14917 0.43586 0.00000
O372 O 0.38140 0.18340 0.49764 0.00000
O373 O 0.34514 0.20471 0.47902 0.00000
H374 H 0.28525 0.05901 0.49664 0.00000
O375 O 0.37563 0.14672 0.44729 0.00000
O376 O 0.34306 0.17408 0.42696 0.00000
C377 C 0.26834 0.12115 0.53310 0.00000
C378 C 0.87534 0.28033 0.43336 0.00000
C379 C 0.94596 0.32205 0.50025 0.00000
Zn380 Zn 0.82823 0.31808 0.45932 0.00000
Zn381 Zn 0.89002 0.30569 0.48557 0.00000
Zn382 Zn 0.85635 0.36859 0.49165 0.00000
Zn383 Zn 0.83500 0.31335 0.52224 0.00000
O384 O 0.80300 0.28711 0.46842 0.00000
O385 O 0.80048 0.29196 0.51647 0.00000
C386 C 0.84579 0.36094 0.55415 0.00000
C387 C 0.79372 0.36721 0.49284 0.00000
C388 C 0.79290 0.28083 0.49235 0.00000
O389 O 0.95440 0.29670 0.49415 0.00000
O390 O 0.92065 0.33071 0.49634 0.00000
O391 O 0.86187 0.36975 0.53630 0.00000
O392 O 0.82859 0.34045 0.55289 0.00000
O393 O 0.85824 0.28317 0.54194 0.00000
O394 O 0.89010 0.27252 0.51033 0.00000
C395 C 0.84009 0.36754 0.42785 0.00000
O396 O 0.85472 0.32637 0.48996 0.00000
O397 O 0.89650 0.28851 0.44838 0.00000
O398 O 0.85082 0.28914 0.43586 0.00000
O399 O 0.81660 0.38140 0.49764 0.00000
O400 O 0.79528 0.34514 0.47902 0.00000
H401 H 0.94098 0.28525 0.49664 0.00000
O402 O 0.85327 0.37563 0.44729 0.00000
O403 O 0.82591 0.34306 0.42696 0.00000
C404 C 0.87884 0.26834 0.53310 0.00000
C405 C 0.43336 0.71968 0.87533 0.00000
C406 C 0.50025 0.67796 0.94596 0.00000
Zn407 Zn 0.45932 0.68192 0.82822 0.00000
Zn408 Zn 0.48557 0.69431 0.89002 0.00000
Zn409 Zn 0.49165 0.63141 0.85635 0.00000
Zn410 Zn 0.52224 0.68665 0.83500 0.00000
O411 O 0.46842 0.71289 0.80299 0.00000
O412 O 0.51647 0.70804 0.80048 0.00000
C413 C 0.55415 0.63906 0.84579 0.00000
C414 C 0.49284 0.63279 0.79372 0.00000
C415 C 0.49235 0.71917 0.79290 0.00000
O416 O 0.49415 0.70330 0.95439 0.00000
O417 O 0.49634 0.66929 0.92065 0.00000
O418 O 0.53630 0.63025 0.86187 0.00000
O419 O 0.55289 0.65955 0.82858 0.00000
O420 O 0.54194 0.71683 0.85823 0.00000
O421 O 0.51033 0.72749 0.89010 0.00000
C422 C 0.42785 0.63246 0.84008 0.00000
O423 O 0.48996 0.67363 0.85472 0.00000
O424 O 0.44838 0.71150 0.89650 0.00000
O425 O 0.43586 0.71086 0.85082 0.00000
O426 O 0.49764 0.61861 0.81660 0.00000
O427 O 0.47902 0.65486 0.79528 0.00000
H428 H 0.49664 0.71476 0.94098 0.00000
O429 O 0.44729 0.62437 0.85327 0.00000
O430 O 0.42696 0.65694 0.82591 0.00000
C431 C 0.53310 0.73167 0.87884 0.00000
C432 C 0.56664 0.71968 0.12467 0.00000
C433 C 0.49975 0.67796 0.05404 0.00000
Zn434 Zn 0.54068 0.68192 0.17178 0.00000
Zn435 Zn 0.51443 0.69431 0.10998 0.00000
Zn436 Zn 0.50835 0.63141 0.14365 0.00000
Zn437 Zn 0.47776 0.68665 0.16500 0.00000
O438 O 0.53158 0.71289 0.19701 0.00000
O439 O 0.48353 0.70804 0.19952 0.00000
C440 C 0.44585 0.63906 0.15421 0.00000
C441 C 0.50716 0.63279 0.20628 0.00000
C442 C 0.50765 0.71917 0.20710 0.00000
O443 O 0.50585 0.70330 0.04561 0.00000
O444 O 0.50366 0.66929 0.07935 0.00000
O445 O 0.46370 0.63025 0.13813 0.00000
O446 O 0.44711 0.65955 0.17142 0.00000
O447 O 0.45806 0.71683 0.14177 0.00000
O448 O 0.48967 0.72749 0.10990 0.00000
C449 C 0.57215 0.63246 0.15992 0.00000
O450 O 0.51004 0.67363 0.14528 0.00000
O451 O 0.55162 0.71150 0.10350 0.00000
O452 O 0.56414 0.71086 0.14918 0.00000
O453 O 0.50236 0.61861 0.18340 0.00000
O454 O 0.52098 0.65486 0.20472 0.00000
H455 H 0.50336 0.71476 0.05902 0.00000
O456 O 0.55271 0.62437 0.14673 0.00000
O457 O 0.57304 0.65694 0.17409 0.00000
C458 C 0.46690 0.73167 0.12116 0.00000
C459 C 0.28033 0.56664 0.12466 0.00000
C460 C 0.32205 0.49975 0.05404 0.00000
Zn461 Zn 0.31808 0.54068 0.17177 0.00000
Zn462 Zn 0.30569 0.51443 0.10997 0.00000
Zn463 Zn 0.36859 0.50835 0.14365 0.00000
Zn464 Zn 0.31335 0.47776 0.16500 0.00000
O465 O 0.28711 0.53158 0.19700 0.00000
O466 O 0.29196 0.48353 0.19952 0.00000
C467 C 0.36094 0.44585 0.15421 0.00000
C468 C 0.36721 0.50716 0.20627 0.00000
C469 C 0.28083 0.50765 0.20709 0.00000
O470 O 0.29670 0.50585 0.04560 0.00000
O471 O 0.33071 0.50366 0.07934 0.00000
O472 O 0.36975 0.46370 0.13812 0.00000
O473 O 0.34045 0.44711 0.17141 0.00000
O474 O 0.28317 0.45806 0.14176 0.00000
O475 O 0.27252 0.48967 0.10989 0.00000
C476 C 0.36754 0.57215 0.15991 0.00000
O477 O 0.32637 0.51004 0.14527 0.00000
O478 O 0.28851 0.55162 0.10349 0.00000
O479 O 0.28914 0.56414 0.14917 0.00000
O480 O 0.38140 0.50236 0.18340 0.00000
O481 O 0.34514 0.52098 0.20472 0.00000
H482 H 0.28525 0.50336 0.05901 0.00000
O483 O 0.37563 0.55271 0.14673 0.00000
O484 O 0.34306 0.57304 0.17409 0.00000
C485 C 0.26834 0.46690 0.12115 0.00000
C486 C 0.43336 0.28032 0.12467 0.00000
C487 C 0.50025 0.32204 0.05404 0.00000
Zn488 Zn 0.45932 0.31808 0.17178 0.00000
Zn489 Zn 0.48557 0.30569 0.10998 0.00000
Zn490 Zn 0.49165 0.36859 0.14365 0.00000
Zn491 Zn 0.52224 0.31335 0.16500 0.00000
O492 O 0.46842 0.28711 0.19701 0.00000
O493 O 0.51647 0.29196 0.19952 0.00000
C494 C 0.55415 0.36094 0.15421 0.00000
C495 C 0.49284 0.36721 0.20628 0.00000
C496 C 0.49235 0.28083 0.20710 0.00000
O497 O 0.49415 0.29670 0.04561 0.00000
O498 O 0.49634 0.33071 0.07935 0.00000
O499 O 0.53630 0.36975 0.13813 0.00000
O500 O 0.55289 0.34045 0.17142 0.00000
O501 O 0.54194 0.28317 0.14177 0.00000
O502 O 0.51033 0.27251 0.10990 0.00000
C503 C 0.42785 0.36754 0.15992 0.00000
O504 O 0.48996 0.32637 0.14528 0.00000
O505 O 0.44838 0.28850 0.10350 0.00000
O506 O 0.43586 0.28914 0.14918 0.00000
O507 O 0.49764 0.38139 0.18340 0.00000
O508 O 0.47902 0.34514 0.20472 0.00000
H509 H 0.49664 0.28524 0.05902 0.00000
O510 O 0.44729 0.37563 0.14673 0.00000
O511 O 0.42696 0.34306 0.17409 0.00000
C512 C 0.53310 0.26833 0.12116 0.00000
C513 C 0.28033 0.43336 0.87534 0.00000
C514 C 0.32205 0.50025 0.94596 0.00000
Zn515 Zn 0.31808 0.45932 0.82823 0.00000
Zn516 Zn 0.30569 0.48557 0.89003 0.00000
Zn517 Zn 0.36859 0.49165 0.85635 0.00000
Zn518 Zn 0.31335 0.52224 0.83500 0.00000
O519 O 0.28711 0.46842 0.80300 0.00000
O520 O 0.29196 0.51647 0.80048 0.00000
C521 C 0.36094 0.55415 0.84579 0.00000
C522 C 0.36721 0.49284 0.79373 0.00000
C523 C 0.28083 0.49235 0.79291 0.00000
O524 O 0.29670 0.49415 0.95440 0.00000
O525 O 0.33071 0.49634 0.92066 0.00000
O526 O 0.36975 0.53630 0.86188 0.00000
O527 O 0.34045 0.55289 0.82859 0.00000
O528 O 0.28317 0.54194 0.85824 0.00000
O529 O 0.27252 0.51033 0.89011 0.00000
C530 C 0.36754 0.42785 0.84009 0.00000
O531 O 0.32637 0.48996 0.85473 0.00000
O532 O 0.28851 0.44838 0.89651 0.00000
O533 O 0.28914 0.43586 0.85083 0.00000
O534 O 0.38140 0.49764 0.81660 0.00000
O535 O 0.34514 0.47902 0.79528 0.00000
H536 H 0.28525 0.49664 0.94099 0.00000
O537 O 0.37563 0.44729 0.85327 0.00000
O538 O 0.34306 0.42696 0.82591 0.00000
C539 C 0.26834 0.53310 0.87885 0.00000
C540 C 0.56664 0.28032 0.87533 0.00000
C541 C 0.49975 0.32204 0.94596 0.00000
Zn542 Zn 0.54068 0.31808 0.82822 0.00000
Zn543 Zn 0.51443 0.30569 0.89002 0.00000
Zn544 Zn 0.50835 0.36859 0.85635 0.00000
Zn545 Zn 0.47776 0.31335 0.83500 0.00000
O546 O 0.53158 0.28711 0.80299 0.00000
O547 O 0.48353 0.29196 0.80048 0.00000
C548 C 0.44585 0.36094 0.84579 0.00000
C549 C 0.50716 0.36721 0.79372 0.00000
C550 C 0.50765 0.28083 0.79290 0.00000
O551 O 0.50585 0.29670 0.95439 0.00000
O552 O 0.50366 0.33071 0.92065 0.00000
O553 O 0.46370 0.36975 0.86187 0.00000
O554 O 0.44711 0.34045 0.82858 0.00000
O555 O 0.45806 0.28317 0.85823 0.00000
O556 O 0.48967 0.27251 0.89010 0.00000
C557 C 0.57215 0.36754 0.84008 0.00000
O558 O 0.51004 0.32637 0.85472 0.00000
O559 O 0.55162 0.28850 0.89650 0.00000
O560 O 0.56414 0.28914 0.85082 0.00000
O561 O 0.50236 0.38139 0.81660 0.00000
O562 O 0.52098 0.34514 0.79528 0.00000
H563 H 0.50336 0.28524 0.94098 0.00000
O564 O 0.55271 0.37563 0.85327 0.00000
O565 O 0.57304 0.34306 0.82591 0.00000
C566 C 0.46690 0.26833 0.87884 0.00000
C567 C 0.71967 0.87534 0.43336 0.00000
C568 C 0.67795 0.94597 0.50025 0.00000
Zn569 Zn 0.68192 0.82823 0.45932 0.00000
Zn570 Zn 0.69431 0.89003 0.48557 0.00000
Zn571 Zn 0.63141 0.85635 0.49165 0.00000
Zn572 Zn 0.68665 0.83501 0.52224 0.00000
O573 O 0.71289 0.80300 0.46842 0.00000
O574 O 0.70804 0.80048 0.51647 0.00000
C575 C 0.63906 0.84580 0.55415 0.00000
C576 C 0.63279 0.79373 0.49284 0.00000
C577 C 0.71917 0.79291 0.49235 0.00000
O578 O 0.70330 0.95440 0.49415 0.00000
O579 O 0.66929 0.92066 0.49634 0.00000
O580 O 0.63025 0.86188 0.53630 0.00000
O581 O 0.65955 0.82859 0.55289 0.00000
O582 O 0.71683 0.85824 0.54194 0.00000
O583 O 0.72748 0.89011 0.51033 0.00000
C584 C 0.63246 0.84009 0.42785 0.00000
O585 O 0.67363 0.85473 0.48996 0.00000
O586 O 0.71149 0.89651 0.44838 0.00000
O587 O 0.71086 0.85083 0.43586 0.00000
O588 O 0.61860 0.81660 0.49764 0.00000
O589 O 0.65486 0.79529 0.47902 0.00000
H590 H 0.71475 0.94099 0.49664 0.00000
O591 O 0.62437 0.85328 0.44729 0.00000
O592 O 0.65694 0.82592 0.42696 0.00000
C593 C 0.73166 0.87885 0.53310 0.00000
C594 C 0.12466 0.56664 0.71967 0.00000
C595 C 0.05404 0.49975 0.67795 0.00000
Zn596 Zn 0.17177 0.54068 0.68192 0.00000
Zn597 Zn 0.10997 0.51443 0.69431 0.00000
Zn598 Zn 0.14365 0.50835 0.63141 0.00000
Zn599 Zn 0.16500 0.47776 0.68665 0.00000
O600 O 0.19700 0.53158 0.71289 0.00000
O601 O 0.19952 0.48353 0.70804 0.00000
C602 C 0.15421 0.44585 0.63906 0.00000
C603 C 0.20627 0.50716 0.63279 0.00000
C604 C 0.20709 0.50765 0.71917 0.00000
O605 O 0.04560 0.50585 0.70330 0.00000
O606 O 0.07935 0.50366 0.66929 0.00000
O607 O 0.13812 0.46370 0.63025 0.00000
O608 O 0.17141 0.44711 0.65955 0.00000
O609 O 0.14176 0.45806 0.71683 0.00000
O610 O 0.10989 0.48967 0.72748 0.00000
C611 C 0.15991 0.57215 0.63246 0.00000
O612 O 0.14527 0.51004 0.67363 0.00000
O613 O 0.10349 0.55162 0.71149 0.00000
O614 O 0.14917 0.56414 0.71086 0.00000
O615 O 0.18340 0.50236 0.61860 0.00000
O616 O 0.20472 0.52098 0.65486 0.00000
H617 H 0.05901 0.50336 0.71475 0.00000
O618 O 0.14673 0.55271 0.62436 0.00000
O619 O 0.17409 0.57304 0.65694 0.00000
C620 C 0.12115 0.46690 0.73166 0.00000
C621 C 0.43336 0.12467 0.71968 0.00000
C622 C 0.50025 0.05404 0.67796 0.00000
Zn623 Zn 0.45932 0.17178 0.68192 0.00000
Zn624 Zn 0.48557 0.10998 0.69431 0.00000
Zn625 Zn 0.49165 0.14366 0.63141 0.00000
Zn626 Zn 0.52224 0.16500 0.68665 0.00000
O627 O 0.46842 0.19701 0.71289 0.00000
O628 O 0.51647 0.19953 0.70804 0.00000
C629 C 0.55415 0.15421 0.63906 0.00000
C630 C 0.49284 0.20628 0.63279 0.00000
C631 C 0.49235 0.20710 0.71917 0.00000
O632 O 0.49415 0.04561 0.70330 0.00000
O633 O 0.49634 0.07935 0.66929 0.00000
O634 O 0.53630 0.13813 0.63025 0.00000
O635 O 0.55289 0.17142 0.65955 0.00000
O636 O 0.54194 0.14177 0.71683 0.00000
O637 O 0.51033 0.10990 0.72749 0.00000
C638 C 0.42785 0.15992 0.63246 0.00000
O639 O 0.48996 0.14528 0.67363 0.00000
O640 O 0.44838 0.10350 0.71150 0.00000
O641 O 0.43586 0.14918 0.71086 0.00000
O642 O 0.49764 0.18340 0.61861 0.00000
O643 O 0.47902 0.20472 0.65486 0.00000
H644 H 0.49664 0.05902 0.71476 0.00000
O645 O 0.44729 0.14673 0.62437 0.00000
O646 O 0.42696 0.17409 0.65694 0.00000
C647 C 0.53310 0.12116 0.73167 0.00000
C648 C 0.88246 0.37395 0.58344 0.00000
C649 C 0.85326 0.37266 0.57947 0.00000
C650 C 0.83632 0.39002 0.59558 0.00000
C651 C 0.84882 0.40800 0.61514 0.00000
C652 C 0.87795 0.40842 0.61718 0.00000
H653 H 0.89394 0.36189 0.57284 0.00000
H654 H 0.81670 0.38971 0.59338 0.00000
H655 H 0.88621 0.42100 0.62996 0.00000
N656 N 0.89495 0.39182 0.60185 0.00000
C657 C 0.62106 0.15593 0.36076 0.00000
C658 C 0.59788 0.15618 0.37902 0.00000
C659 C 0.60286 0.15592 0.40771 0.00000
C660 C 0.63058 0.15530 0.41737 0.00000
C661 C 0.65226 0.15580 0.39781 0.00000
H662 H 0.61770 0.15568 0.34132 0.00000
H663 H 0.58781 0.15614 0.42048 0.00000
H664 H 0.67083 0.15598 0.40451 0.00000
N665 N 0.64810 0.15606 0.36985 0.00000
C666 C 0.87811 0.60840 0.43181 0.00000
C667 C 0.85396 0.62332 0.42377 0.00000
C668 C 0.83809 0.61305 0.40162 0.00000
C669 C 0.84669 0.58846 0.38810 0.00000
C670 C 0.87049 0.57466 0.39790 0.00000
H671 H 0.88912 0.61557 0.44653 0.00000
H672 H 0.82176 0.62251 0.39578 0.00000
H673 H 0.87579 0.55782 0.38906 0.00000
N674 N 0.88633 0.58410 0.41933 0.00000
C675 C 0.34678 0.84199 0.39959 0.00000
C676 C 0.36902 0.84263 0.41897 0.00000
C677 C 0.39628 0.84255 0.40876 0.00000
C678 C 0.40064 0.84173 0.37973 0.00000
C679 C 0.37740 0.84185 0.36206 0.00000
H680 H 0.32830 0.84161 0.40649 0.00000
H681 H 0.41163 0.84303 0.42118 0.00000
H682 H 0.38053 0.84190 0.34256 0.00000
N683 N 0.35069 0.84192 0.37133 0.00000
C684 C 0.16280 0.34710 0.40051 0.00000
C685 C 0.15832 0.36934 0.41937 0.00000
C686 C 0.15653 0.39638 0.40871 0.00000
C687 C 0.15934 0.40052 0.37978 0.00000
C688 C 0.16303 0.37721 0.36258 0.00000
H689 H 0.16444 0.32882 0.40776 0.00000
H690 H 0.15347 0.41171 0.42077 0.00000
H691 H 0.16430 0.38013 0.34309 0.00000
N692 N 0.16485 0.35073 0.37229 0.00000
C693 C 0.55411 0.59592 0.85113 0.00000
C694 C 0.57219 0.61918 0.84961 0.00000
C695 C 0.60034 0.61447 0.84387 0.00000
C696 C 0.60968 0.58691 0.83993 0.00000
C697 C 0.59019 0.56520 0.84110 0.00000
H698 H 0.53511 0.59905 0.85544 0.00000
H699 H 0.61298 0.62959 0.84264 0.00000
H700 H 0.59655 0.54679 0.83784 0.00000
N701 N 0.56274 0.56910 0.84664 0.00000
C702 C 0.59596 0.35715 0.12783 0.00000
C703 C 0.58151 0.36961 0.15034 0.00000
C704 C 0.59291 0.39342 0.16262 0.00000
C705 C 0.61826 0.40404 0.15232 0.00000
C706 C 0.63078 0.39079 0.12951 0.00000
H707 H 0.58848 0.34077 0.11976 0.00000
H708 H 0.58371 0.40229 0.17768 0.00000
H709 H 0.64752 0.39843 0.12234 0.00000
N710 N 0.62024 0.36766 0.11714 0.00000
C711 C 0.63902 0.84024 0.37856 0.00000
C712 C 0.62110 0.84303 0.40183 0.00000
C713 C 0.59243 0.84480 0.39709 0.00000
C714 C 0.58246 0.84386 0.36949 0.00000
C715 C 0.60164 0.84035 0.34776 0.00000
H716 H 0.65849 0.83947 0.38172 0.00000
H717 H 0.57987 0.84661 0.41222 0.00000
H718 H 0.59470 0.83914 0.32931 0.00000
N719 N 0.62958 0.83858 0.35169 0.00000
C720 C 0.15998 0.59159 0.43567 0.00000
C721 C 0.16214 0.61080 0.41339 0.00000
C722 C 0.15820 0.60101 0.38625 0.00000
C723 C 0.15237 0.57255 0.38206 0.00000
C724 C 0.14991 0.55515 0.40538 0.00000
H725 H 0.16306 0.59811 0.45404 0.00000
H726 H 0.15944 0.61335 0.37088 0.00000
H727 H 0.14540 0.53616 0.40240 0.00000
N728 N 0.15362 0.56402 0.43197 0.00000
C729 C 0.39945 0.85794 0.65074 0.00000
C730 C 0.41822 0.84608 0.63131 0.00000
C731 C 0.40835 0.83965 0.60468 0.00000
C732 C 0.38024 0.84508 0.59819 0.00000
C733 C 0.36332 0.85752 0.61848 0.00000
H734 H 0.40600 0.86191 0.66893 0.00000
H735 H 0.42041 0.83175 0.59118 0.00000
H736 H 0.34460 0.86164 0.61374 0.00000
N737 N 0.37227 0.86399 0.64450 0.00000
C738 C 0.18711 0.57588 0.59744 0.00000
C739 C 0.16692 0.59042 0.61330 0.00000
C740 C 0.15263 0.61243 0.60069 0.00000
C741 C 0.15886 0.61939 0.57285 0.00000
C742 C 0.17865 0.60343 0.55850 0.00000
H743 H 0.19711 0.56124 0.60609 0.00000
H744 H 0.13895 0.62254 0.61072 0.00000
H745 H 0.18228 0.60788 0.53961 0.00000
N746 N 0.19287 0.58195 0.57016 0.00000
C747 C 0.40358 0.14375 0.55524 0.00000
C748 C 0.38044 0.14939 0.57265 0.00000
C749 C 0.38546 0.15713 0.60027 0.00000
C750 C 0.41319 0.15892 0.60976 0.00000
C751 C 0.43484 0.15366 0.59089 0.00000
H752 H 0.40019 0.13810 0.53664 0.00000
H753 H 0.37043 0.16111 0.61244 0.00000
H754 H 0.45342 0.15549 0.59729 0.00000
N755 N 0.43063 0.14610 0.56397 0.00000
C756 C 0.36174 0.14447 0.38203 0.00000
C757 C 0.37976 0.15400 0.40336 0.00000
C758 C 0.40784 0.15817 0.39692 0.00000
C759 C 0.41719 0.15268 0.36964 0.00000
C760 C 0.39776 0.14398 0.34965 0.00000
H761 H 0.34279 0.14122 0.38647 0.00000
H762 H 0.42043 0.16460 0.41071 0.00000
H763 H 0.40412 0.14091 0.33121 0.00000
N764 N 0.37038 0.13973 0.35525 0.00000
C765 C 0.65000 0.82609 0.59554 0.00000
C766 C 0.62943 0.83970 0.57934 0.00000
C767 C 0.60380 0.84574 0.59175 0.00000
C768 C 0.59932 0.83802 0.61972 0.00000
C769 C 0.62109 0.82526 0.63440 0.00000
H770 H 0.66722 0.82160 0.58703 0.00000
H771 H 0.58962 0.85489 0.58149 0.00000
H772 H 0.61811 0.82068 0.65337 0.00000
N773 N 0.64620 0.81912 0.62294 0.00000
C774 C 0.40003 0.61622 0.80421 0.00000
C775 C 0.40423 0.61778 0.83337 0.00000
C776 C 0.39186 0.59752 0.85023 0.00000
C777 C 0.37566 0.57648 0.83770 0.00000
C778 C 0.37320 0.57614 0.80861 0.00000
H779 H 0.40806 0.63018 0.79279 0.00000
H780 H 0.39432 0.59794 0.86982 0.00000
H781 H 0.36276 0.56157 0.80032 0.00000
N782 N 0.38495 0.59550 0.79168 0.00000
C783 C 0.65206 0.59813 0.16756 0.00000
C784 C 0.63022 0.58014 0.15920 0.00000
C785 C 0.60362 0.59142 0.15558 0.00000
C786 C 0.59950 0.62008 0.16044 0.00000
C787 C 0.62246 0.63647 0.16798 0.00000
H788 H 0.67000 0.59043 0.17044 0.00000
H789 H 0.58857 0.57996 0.14993 0.00000
H790 H 0.61962 0.65583 0.17063 0.00000
N791 N 0.64852 0.62614 0.17166 0.00000
C792 C 0.43739 0.60267 0.12786 0.00000
C793 C 0.42516 0.62177 0.14674 0.00000
C794 C 0.40072 0.61391 0.16048 0.00000
C795 C 0.38914 0.58749 0.15500 0.00000
C796 C 0.40303 0.56965 0.13653 0.00000
H797 H 0.45372 0.60814 0.11822 0.00000
H798 H 0.39205 0.62618 0.17329 0.00000
H799 H 0.39542 0.55169 0.13343 0.00000
N800 N 0.42677 0.57666 0.12288 0.00000
C801 C 0.34978 0.39967 0.14060 0.00000
C802 C 0.36872 0.41820 0.15358 0.00000
C803 C 0.39517 0.40827 0.16059 0.00000
C804 C 0.40197 0.38034 0.15464 0.00000
C805 C 0.38218 0.36367 0.14110 0.00000
H806 H 0.33170 0.40625 0.13622 0.00000
H807 H 0.40836 0.42016 0.16924 0.00000
H808 H 0.38714 0.34509 0.13664 0.00000
N809 N 0.35634 0.37269 0.13403 0.00000
C810 C 0.40707 0.43132 0.82356 0.00000
C811 C 0.38816 0.41162 0.83472 0.00000
C812 C 0.39879 0.38655 0.84503 0.00000
C813 C 0.42773 0.38176 0.84386 0.00000
C814 C 0.44498 0.40272 0.83311 0.00000
H815 H 0.39986 0.44814 0.81618 0.00000
H816 H 0.38669 0.37295 0.85270 0.00000
H817 H 0.46447 0.39957 0.83295 0.00000
N818 N 0.43531 0.42726 0.82294 0.00000
C819 C 0.56419 0.40782 0.84511 0.00000
C820 C 0.58631 0.38930 0.83894 0.00000
C821 C 0.61361 0.39923 0.84086 0.00000
C822 C 0.61812 0.42716 0.84871 0.00000
C823 C 0.59501 0.44382 0.85512 0.00000
H824 H 0.54566 0.40125 0.84340 0.00000
H825 H 0.62889 0.38734 0.83694 0.00000
H826 H 0.59826 0.46240 0.86096 0.00000
N827 N 0.56827 0.43480 0.85345 0.00000
C828 C 0.84971 0.36093 0.38008 0.00000
C829 C 0.84493 0.37931 0.40265 0.00000
C830 C 0.84299 0.40783 0.39710 0.00000
C831 C 0.84596 0.41721 0.36944 0.00000
C832 C 0.84995 0.39748 0.34830 0.00000
H833 H 0.85145 0.34164 0.38387 0.00000
H834 H 0.83974 0.42068 0.41174 0.00000
H835 H 0.85133 0.40392 0.32968 0.00000
N836 N 0.85192 0.36967 0.35301 0.00000
C837 C 0.13585 0.40101 0.56923 0.00000
C838 C 0.15652 0.38868 0.58630 0.00000
C839 C 0.16234 0.40097 0.61204 0.00000
C840 C 0.14761 0.42510 0.61999 0.00000
C841 C 0.12700 0.43547 0.60210 0.00000
H842 H 0.13218 0.39295 0.55160 0.00000
H843 H 0.17601 0.39320 0.62399 0.00000
H844 H 0.11679 0.45135 0.60788 0.00000
N845 N 0.12087 0.42402 0.57699 0.00000
C846 C 0.59483 0.14457 0.56567 0.00000
C847 C 0.61081 0.15871 0.58605 0.00000
C848 C 0.60001 0.16094 0.61300 0.00000
C849 C 0.57374 0.14922 0.61886 0.00000
C850 C 0.55968 0.13498 0.59760 0.00000
H851 H 0.60193 0.14341 0.54730 0.00000
H852 H 0.61022 0.17021 0.62714 0.00000
H853 H 0.54230 0.12665 0.60188 0.00000
N854 N 0.56960 0.13246 0.57124 0.00000
C855 C 0.88140 0.58657 0.62999 0.00000
C856 C 0.85269 0.58005 0.62813 0.00000
C857 C 0.83631 0.59495 0.60922 0.00000
C858 C 0.84885 0.61587 0.59288 0.00000
C859 C 0.87756 0.62045 0.59558 0.00000
H860 H 0.89244 0.57679 0.64310 0.00000
H861 H 0.81704 0.59104 0.60742 0.00000
H862 H 0.88593 0.63414 0.58408 0.00000
N863 N 0.89401 0.60634 0.61374 0.00000
C864 C 0.02676 0.53473 0.67600 0.00000
C865 C 0.02605 0.50558 0.67147 0.00000
C866 C 0.00010 0.49291 0.66694 0.00000
C867 C 0.97598 0.50946 0.66717 0.00000
C868 C 0.97870 0.53826 0.67112 0.00000
H869 H 0.04420 0.54328 0.67949 0.00000
H870 H 0.99990 0.47345 0.66377 0.00000
H871 H 0.96234 0.54931 0.67064 0.00000
N872 N 0.00345 0.55117 0.67556 0.00000
C873 C 0.50977 0.97551 0.36902 0.00000
C874 C 0.50058 0.97426 0.34101 0.00000
C875 C 0.49696 0.99990 0.32651 0.00000
C876 C 0.50245 0.02463 0.34023 0.00000
C877 C 0.51215 0.02387 0.36776 0.00000
H878 H 0.51182 0.95861 0.37901 0.00000
H879 H 0.49090 0.99990 0.30772 0.00000
H880 H 0.51635 0.04101 0.37662 0.00000
N881 N 0.51586 0.99990 0.38239 0.00000
C882 C 0.02671 0.46632 0.32049 0.00000
C883 C 0.02603 0.49488 0.32788 0.00000
C884 C 0.00010 0.50704 0.33375 0.00000
C885 C 0.97598 0.49059 0.33202 0.00000
C886 C 0.97867 0.46232 0.32524 0.00000
H887 H 0.04413 0.45816 0.31609 0.00000
H888 H 0.99990 0.52609 0.33883 0.00000
H889 H 0.96231 0.45127 0.32471 0.00000
N890 N 0.00340 0.44991 0.31942 0.00000
C891 C 0.63390 0.51784 0.02408 0.00000
C892 C 0.65903 0.50246 0.02564 0.00000
C893 C 0.67261 0.49558 0.00010 0.00000
C894 C 0.66081 0.50403 0.97529 0.00000
C895 C 0.63624 0.51980 0.97574 0.00000
H896 H 0.62446 0.52215 0.04086 0.00000
H897 H 0.68950 0.48537 0.00115 0.00000
H898 H 0.62878 0.52590 0.95851 0.00000
N899 N 0.62258 0.52681 0.99990 0.00000
C900 C 0.49557 0.02522 0.63043 0.00000
C901 C 0.49758 0.02589 0.65986 0.00000
C902 C 0.49958 0.00010 0.67417 0.00000
C903 C 0.49942 0.97553 0.65892 0.00000
C904 C 0.49807 0.97685 0.62978 0.00000
H905 H 0.49378 0.04231 0.62073 0.00000
H906 H 0.50102 0.00010 0.69387 0.00000
H907 H 0.49857 0.95990 0.61966 0.00000
N908 N 0.49611 0.00104 0.61529 0.00000
C909 C 0.30470 0.97631 0.47460 0.00000
C910 C 0.32868 0.97466 0.49170 0.00000
C911 C 0.33913 0.99990 0.50330 0.00000
C912 C 0.32557 0.02463 0.49750 0.00000
C913 C 0.30154 0.02422 0.48093 0.00000
H914 H 0.29785 0.95972 0.46639 0.00000
H915 H 0.35511 0.99884 0.51489 0.00000
H916 H 0.29221 0.04131 0.47763 0.00000
N917 N 0.29089 0.00010 0.46937 0.00000
C918 C 0.97675 0.64971 0.46598 0.00000
C919 C 0.97459 0.66121 0.49306 0.00000
C920 C 0.99990 0.66900 0.50678 0.00000
C921 C 0.02484 0.66506 0.49330 0.00000
C922 C 0.02498 0.65419 0.46620 0.00000
H923 H 0.96021 0.64403 0.45683 0.00000
H924 H 0.99833 0.67682 0.52490 0.00000
H925 H 0.04236 0.65216 0.45706 0.00000
N926 N 0.00159 0.64643 0.45234 0.00000
C927 C 0.63999 0.02622 0.52405 0.00000
C928 C 0.66321 0.02606 0.50585 0.00000
C929 C 0.67320 0.00010 0.49638 0.00000
C930 C 0.65996 0.97577 0.50530 0.00000
C931 C 0.63666 0.97791 0.52277 0.00000
H932 H 0.63346 0.04356 0.53082 0.00000
H933 H 0.68867 0.99990 0.48412 0.00000
H934 H 0.62753 0.96126 0.52819 0.00000
N935 N 0.62647 0.00249 0.53232 0.00000
C936 C 0.97689 0.34357 0.53678 0.00000
C937 C 0.97464 0.33758 0.50798 0.00000
C938 C 0.99990 0.33237 0.49299 0.00000
C939 C 0.02486 0.33335 0.50695 0.00000
C940 C 0.02507 0.33875 0.53565 0.00000
H941 H 0.96040 0.34753 0.54687 0.00000
H942 H 0.99826 0.32823 0.47369 0.00000
H943 H 0.04247 0.33878 0.54499 0.00000
N944 N 0.00174 0.34389 0.55077 0.00000
C945 C 0.48175 0.63411 0.02406 0.00000
C946 C 0.49744 0.65905 0.02563 0.00000
C947 C 0.50449 0.67255 0.00010 0.00000
C948 C 0.49589 0.66088 0.97529 0.00000
C949 C 0.47982 0.63651 0.97572 0.00000
H950 H 0.47732 0.62471 0.04084 0.00000
H951 H 0.51491 0.68932 0.00116 0.00000
H952 H 0.47363 0.62913 0.95848 0.00000
N953 N 0.47264 0.62292 0.99990 0.00000
C954 C 0.35728 0.47078 0.02350 0.00000
C955 C 0.33992 0.49455 0.02549 0.00000
C956 C 0.32950 0.50617 0.00010 0.00000
C957 C 0.33670 0.49397 0.97519 0.00000
C958 C 0.35343 0.47004 0.97522 0.00000
H959 H 0.36470 0.46314 0.04011 0.00000
H960 H 0.31777 0.52204 0.00153 0.00000
H961 H 0.35768 0.46163 0.95787 0.00000
N962 N 0.36386 0.45827 0.99872 0.00000
C963 C 0.47246 0.30952 0.02639 0.00000
C964 C 0.49692 0.32601 0.02592 0.00000
C965 C 0.50635 0.33604 0.00010 0.00000
C966 C 0.49135 0.32934 0.97594 0.00000
C967 C 0.46696 0.31348 0.97843 0.00000
H968 H 0.46628 0.30235 0.04371 0.00000
H969 H 0.52262 0.34720 0.99990 0.00000
H970 H 0.45667 0.30958 0.96204 0.00000
N971 N 0.45727 0.30344 0.00302 0.00000
C972 C 0.73478 0.54010 0.76095 0.00000
C973 C 0.73298 0.51131 0.76717 0.00000
C974 C 0.75154 0.49313 0.75404 0.00000
C975 C 0.77118 0.50400 0.73512 0.00000
C976 C 0.77195 0.53286 0.73075 0.00000
H977 H 0.72194 0.55239 0.76951 0.00000
H978 H 0.75092 0.47375 0.75780 0.00000
H979 H 0.78562 0.54005 0.71845 0.00000
N980 N 0.75422 0.55104 0.74317 0.00000
C981 C 0.54075 0.23305 0.25906 0.00000
C982 C 0.51204 0.23169 0.26570 0.00000
C983 C 0.49336 0.24714 0.24959 0.00000
C984 C 0.50370 0.26351 0.22752 0.00000
C985 C 0.53237 0.26307 0.22198 0.00000
H986 H 0.55348 0.22292 0.27023 0.00000
H987 H 0.47400 0.24663 0.25345 0.00000
H988 H 0.53907 0.27367 0.20673 0.00000
N989 N 0.55103 0.24829 0.23724 0.00000
C990 C 0.71366 0.52140 0.24539 0.00000
C991 C 0.73147 0.50284 0.23093 0.00000
C992 C 0.75719 0.49622 0.24287 0.00000
C993 C 0.76448 0.50826 0.26864 0.00000
C994 C 0.74527 0.52586 0.28182 0.00000
H995 H 0.69641 0.52623 0.23713 0.00000
H996 H 0.76956 0.48382 0.23375 0.00000
H997 H 0.75010 0.53338 0.29943 0.00000
N998 N 0.72016 0.53268 0.27078 0.00000
C999 C 0.48663 0.74379 0.28880 0.00000
C1000 C 0.49623 0.76515 0.27085 0.00000
C1001 C 0.50307 0.75816 0.24343 0.00000
C1002 C 0.50029 0.73026 0.23471 0.00000
C1003 C 0.48996 0.71061 0.25367 0.00000
H1004 H 0.48240 0.74842 0.30750 0.00000
H1005 H 0.50949 0.77198 0.23087 0.00000
H1006 H 0.48760 0.69202 0.24745 0.00000
N1007 N 0.48315 0.71674 0.28041 0.00000
C1008 C 0.23299 0.45925 0.25900 0.00000
C1009 C 0.23167 0.48796 0.26569 0.00000
C1010 C 0.24715 0.50664 0.24959 0.00000
C1011 C 0.26349 0.49630 0.22751 0.00000
C1012 C 0.26301 0.46765 0.22193 0.00000
H1013 H 0.22285 0.44652 0.27016 0.00000
H1014 H 0.24666 0.52600 0.25349 0.00000
H1015 H 0.27360 0.46095 0.20666 0.00000
N1016 N 0.24821 0.44899 0.23716 0.00000
C1017 C 0.46776 0.77206 0.72852 0.00000
C1018 C 0.49646 0.77305 0.73529 0.00000
C1019 C 0.50672 0.75409 0.75486 0.00000
C1020 C 0.48825 0.73486 0.76714 0.00000
C1021 C 0.46030 0.73489 0.75867 0.00000
H1022 H 0.46070 0.78518 0.71558 0.00000
H1023 H 0.52584 0.75416 0.75980 0.00000
H1024 H 0.44815 0.72150 0.76659 0.00000
N1025 N 0.44971 0.75303 0.73974 0.00000
C1026 C 0.20808 0.76101 0.47966 0.00000
C1027 C 0.22572 0.73976 0.49004 0.00000
C1028 C 0.25134 0.74744 0.50155 0.00000
C1029 C 0.25869 0.77586 0.50231 0.00000
C1030 C 0.23964 0.79554 0.49221 0.00000
H1031 H 0.19090 0.75580 0.47147 0.00000
H1032 H 0.26360 0.73373 0.50874 0.00000
H1033 H 0.24450 0.81465 0.49335 0.00000
N1034 N 0.21463 0.78875 0.48092 0.00000
C1035 C 0.74630 0.29093 0.50595 0.00000
C1036 C 0.76664 0.27033 0.50024 0.00000
C1037 C 0.75826 0.24246 0.49947 0.00000
C1038 C 0.73009 0.23588 0.50447 0.00000
C1039 C 0.71124 0.25766 0.50925 0.00000
H1040 H 0.75203 0.30979 0.50691 0.00000
H1041 H 0.77135 0.22817 0.49563 0.00000
H1042 H 0.69223 0.25309 0.51200 0.00000
N1043 N 0.71873 0.28491 0.51014 0.00000
C1044 C 0.76110 0.79210 0.48004 0.00000
C1045 C 0.73980 0.77434 0.49011 0.00000
C1046 C 0.74744 0.74864 0.50148 0.00000
C1047 C 0.77586 0.74133 0.50240 0.00000
C1048 C 0.79559 0.76050 0.49261 0.00000
H1049 H 0.75592 0.80933 0.47194 0.00000
H1050 H 0.73369 0.73630 0.50846 0.00000
H1051 H 0.81469 0.75566 0.49386 0.00000
N1052 N 0.78884 0.78559 0.48146 0.00000
C1053 C 0.25022 0.28941 0.48587 0.00000
C1054 C 0.23226 0.26958 0.49829 0.00000
C1055 C 0.24216 0.24248 0.50220 0.00000
C1056 C 0.26944 0.23588 0.49359 0.00000
C1057 C 0.28602 0.25700 0.48213 0.00000
H1058 H 0.24340 0.30768 0.48282 0.00000
H1059 H 0.23068 0.22873 0.51052 0.00000
H1060 H 0.30454 0.25252 0.47695 0.00000
N1061 N 0.27702 0.28349 0.47807 0.00000
C1062 C 0.23875 0.47230 0.71879 0.00000
C1063 C 0.22930 0.49641 0.73292 0.00000
C1064 C 0.24396 0.50529 0.75646 0.00000
C1065 C 0.26739 0.48996 0.76530 0.00000
C1066 C 0.27568 0.46675 0.74965 0.00000
H1067 H 0.22859 0.46601 0.70309 0.00000
H1068 H 0.23821 0.52139 0.76635 0.00000
H1069 H 0.29181 0.45692 0.75540 0.00000
N1070 N 0.26189 0.45761 0.72671 0.00000
C1071 C 0.47881 0.20849 0.76080 0.00000
C1072 C 0.48989 0.22585 0.73967 0.00000
C1073 C 0.50173 0.25129 0.74745 0.00000
C1074 C 0.50211 0.25875 0.77584 0.00000
C1075 C 0.49130 0.23998 0.79542 0.00000
H1076 H 0.47040 0.19144 0.75551 0.00000
H1077 H 0.50939 0.26335 0.73382 0.00000
H1078 H 0.49218 0.24491 0.81452 0.00000
N1079 N 0.47968 0.21515 0.78853 0.00000
loop_
_geom_bond_atom_site_label_1
_geom_bond_atom_site_label_2
_geom_bond_distance
_geom_bond_site_symmetry_2
_ccdc_geom_bond_type
C0 O19 1.282 . A
C0 O20 1.233 . A
C1 O11 1.291 . A
C1 O12 1.274 . A
Zn2 O6 1.930 . S
Zn2 O18 1.948 . S
Zn2 O20 2.053 . S
Zn2 O22 2.212 . S
Zn2 O25 1.929 . S
Zn3 O12 1.931 . S
Zn3 O16 1.950 . S
Zn3 O18 1.938 . S
Zn3 O19 1.954 . S
Zn4 O13 2.120 . S
Zn4 O18 1.992 . S
Zn4 O21 1.988 . S
Zn4 O24 2.121 . S
Zn5 O7 1.932 . S
Zn5 O14 1.951 . S
Zn5 O15 2.020 . S
Zn5 O18 1.885 . S
O6 C10 1.259 . A
O7 C10 1.301 . A
C8 O13 1.205 . A
C8 O14 1.262 . A
C9 O21 1.288 . A
C9 O22 1.229 . A
O11 H23 0.839 . S
O15 C26 1.267 . A
O16 C26 1.213 . A
C17 O24 1.171 . A
C17 O25 1.333 . A
C27 O46 1.282 . A
C27 O47 1.233 . A
C28 O38 1.291 . A
C28 O39 1.274 . A
Zn29 O33 1.930 . S
Zn29 O45 1.948 . S
Zn29 O47 2.053 . S
Zn29 O49 2.212 . S
Zn29 O52 1.929 . S
Zn30 O39 1.931 . S
Zn30 O43 1.950 . S
Zn30 O45 1.938 . S
Zn30 O46 1.954 . S
Zn31 O40 2.120 . S
Zn31 O45 1.992 . S
Zn31 O48 1.988 . S
Zn31 O51 2.121 . S
Zn32 O34 1.932 . S
Zn32 O41 1.951 . S
Zn32 O42 2.020 . S
Zn32 O45 1.885 . S
O33 C37 1.259 . A
O34 C37 1.301 . A
C35 O40 1.205 . A
C35 O41 1.262 . A
C36 O48 1.288 . A
C36 O49 1.229 . A
O38 H50 0.839 . S
O42 C53 1.267 . A
O43 C53 1.213 . A
C44 O51 1.171 . A
C44 O52 1.333 . A
C54 O73 1.282 . A
C54 O74 1.233 . A
C55 O65 1.291 . A
C55 O66 1.274 . A
Zn56 O60 1.930 . S
Zn56 O72 1.948 . S
Zn56 O74 2.053 . S
Zn56 O76 2.212 . S
Zn56 O79 1.929 . S
Zn57 O66 1.931 . S
Zn57 O70 1.950 . S
Zn57 O72 1.938 . S
Zn57 O73 1.954 . S
Zn58 O67 2.120 . S
Zn58 O72 1.992 . S
Zn58 O75 1.988 . S
Zn58 O78 2.121 . S
Zn59 O61 1.932 . S
Zn59 O68 1.951 . S
Zn59 O69 2.020 . S
Zn59 O72 1.885 . S
O60 C64 1.259 . A
O61 C64 1.301 . A
C62 O67 1.205 . A
C62 O68 1.262 . A
C63 O75 1.288 . A
C63 O76 1.229 . A
O65 H77 0.839 . S
O69 C80 1.267 . A
O70 C80 1.213 . A
C71 O78 1.171 . A
C71 O79 1.333 . A
C81 O100 1.282 . A
C81 O101 1.233 . A
C82 O92 1.291 . A
C82 O93 1.274 . A
Zn83 O87 1.930 . S
Zn83 O99 1.948 . S
Zn83 O101 2.053 . S
Zn83 O103 2.212 . S
Zn83 O106 1.929 . S
Zn84 O93 1.931 . S
Zn84 O97 1.950 . S
Zn84 O99 1.938 . S
Zn84 O100 1.954 . S
Zn85 O94 2.120 . S
Zn85 O99 1.992 . S
Zn85 O102 1.988 . S
Zn85 O105 2.121 . S
Zn86 O88 1.932 . S
Zn86 O95 1.951 . S
Zn86 O96 2.020 . S
Zn86 O99 1.885 . S
O87 C91 1.259 . A
O88 C91 1.301 . A
C89 O94 1.205 . A
C89 O95 1.262 . A
C90 O102 1.288 . A
C90 O103 1.229 . A
O92 H104 0.839 . S
O96 C107 1.267 . A
O97 C107 1.213 . A
C98 O105 1.171 . A
C98 O106 1.333 . A
C108 O127 1.282 . A
C108 O128 1.233 . A
C109 O119 1.291 . A
C109 O120 1.274 . A
Zn110 O114 1.930 . S
Zn110 O126 1.948 . S
Zn110 O128 2.053 . S
Zn110 O130 2.212 . S
Zn110 O133 1.929 . S
Zn111 O120 1.931 . S
Zn111 O124 1.950 . S
Zn111 O126 1.938 . S
Zn111 O127 1.954 . S
Zn112 O121 2.120 . S
Zn112 O126 1.992 . S
Zn112 O129 1.988 . S
Zn112 O132 2.121 . S
Zn113 O115 1.932 . S
Zn113 O122 1.951 . S
Zn113 O123 2.020 . S
Zn113 O126 1.885 . S
O114 C118 1.259 . A
O115 C118 1.301 . A
C116 O121 1.205 . A
C116 O122 1.262 . A
C117 O129 1.288 . A
C117 O130 1.229 . A
O119 H131 0.839 . S
O123 C134 1.267 . A
O124 C134 1.213 . A
C125 O132 1.171 . A
C125 O133 1.333 . A
C135 O154 1.282 . A
C135 O155 1.233 . A
C136 O146 1.291 . A
C136 O147 1.274 . A
Zn137 O141 1.930 . S
Zn137 O153 1.948 . S
Zn137 O155 2.053 . S
Zn137 O157 2.212 . S
Zn137 O160 1.929 . S
Zn138 O147 1.931 . S
Zn138 O151 1.950 . S
Zn138 O153 1.938 . S
Zn138 O154 1.954 . S
Zn139 O148 2.120 . S
Zn139 O153 1.992 . S
Zn139 O156 1.988 . S
Zn139 O159 2.121 . S
Zn140 O142 1.932 . S
Zn140 O149 1.951 . S
Zn140 O150 2.020 . S
Zn140 O153 1.885 . S
O141 C145 1.259 . A
O142 C145 1.301 . A
C143 O148 1.205 . A
C143 O149 1.262 . A
C144 O156 1.288 . A
C144 O157 1.229 . A
O146 H158 0.839 . S
O150 C161 1.267 . A
O151 C161 1.213 . A
C152 O159 1.171 . A
C152 O160 1.333 . A
C162 O181 1.282 . A
C162 O182 1.233 . A
C163 O173 1.291 . A
C163 O174 1.274 . A
Zn164 O168 1.930 . S
Zn164 O180 1.948 . S
Zn164 O182 2.053 . S
Zn164 O184 2.212 . S
Zn164 O187 1.929 . S
Zn165 O174 1.931 . S
Zn165 O178 1.950 . S
Zn165 O180 1.938 . S
Zn165 O181 1.954 . S
Zn166 O175 2.120 . S
Zn166 O180 1.992 . S
Zn166 O183 1.988 . S
Zn166 O186 2.121 . S
Zn167 O169 1.932 . S
Zn167 O176 1.951 . S
Zn167 O177 2.020 . S
Zn167 O180 1.885 . S
O168 C172 1.259 . A
O169 C172 1.301 . A
C170 O175 1.205 . A
C170 O176 1.262 . A
C171 O183 1.288 . A
C171 O184 1.229 . A
O173 H185 0.839 . S
O177 C188 1.267 . A
O178 C188 1.213 . A
C179 O186 1.171 . A
C179 O187 1.333 . A
C189 O208 1.282 . A
C189 O209 1.233 . A
C190 O200 1.291 . A
C190 O201 1.274 . A
Zn191 O195 1.930 . S
Zn191 O207 1.948 . S
Zn191 O209 2.053 . S
Zn191 O211 2.212 . S
Zn191 O214 1.929 . S
Zn192 O201 1.931 . S
Zn192 O205 1.950 . S
Zn192 O207 1.938 . S
Zn192 O208 1.954 . S
Zn193 O202 2.120 . S
Zn193 O207 1.992 . S
Zn193 O210 1.988 . S
Zn193 O213 2.121 . S
Zn194 O196 1.932 . S
Zn194 O203 1.951 . S
Zn194 O204 2.020 . S
Zn194 O207 1.885 . S
O195 C199 1.259 . A
O196 C199 1.301 . A
C197 O202 1.205 . A
C197 O203 1.262 . A
C198 O210 1.288 . A
C198 O211 1.229 . A
O200 H212 0.839 . S
O204 C215 1.267 . A
O205 C215 1.213 . A
C206 O213 1.171 . A
C206 O214 1.333 . A
C216 O235 1.282 . A
C216 O236 1.233 . A
C217 O227 1.291 . A
C217 O228 1.274 . A
Zn218 O222 1.930 . S
Zn218 O234 1.948 . S
Zn218 O236 2.053 . S
Zn218 O238 2.212 . S
Zn218 O241 1.929 . S
Zn219 O228 1.931 . S
Zn219 O232 1.950 . S
Zn219 O234 1.938 . S
Zn219 O235 1.954 . S
Zn220 O229 2.120 . S
Zn220 O234 1.992 . S
Zn220 O237 1.988 . S
Zn220 O240 2.121 . S
Zn221 O223 1.932 . S
Zn221 O230 1.951 . S
Zn221 O231 2.020 . S
Zn221 O234 1.885 . S
O222 C226 1.259 . A
O223 C226 1.301 . A
C224 O229 1.205 . A
C224 O230 1.262 . A
C225 O237 1.288 . A
C225 O238 1.229 . A
O227 H239 0.839 . S
O231 C242 1.267 . A
O232 C242 1.213 . A
C233 O240 1.171 . A
C233 O241 1.333 . A
C243 O262 1.282 . A
C243 O263 1.233 . A
C244 O254 1.291 . A
C244 O255 1.274 . A
Zn245 O249 1.930 . S
Zn245 O261 1.948 . S
Zn245 O263 2.053 . S
Zn245 O265 2.212 . S
Zn245 O268 1.929 . S
Zn246 O255 1.931 . S
Zn246 O259 1.950 . S
Zn246 O261 1.938 . S
Zn246 O262 1.954 . S
Zn247 O256 2.120 . S
Zn247 O261 1.992 . S
Zn247 O264 1.988 . S
Zn247 O267 2.121 . S
Zn248 O250 1.932 . S
Zn248 O257 1.951 . S
Zn248 O258 2.020 . S
Zn248 O261 1.885 . S
O249 C253 1.259 . A
O250 C253 1.301 . A
C251 O256 1.205 . A
C251 O257 1.262 . A
C252 O264 1.288 . A
C252 O265 1.229 . A
O254 H266 0.839 . S
O258 C269 1.267 . A
O259 C269 1.213 . A
C260 O267 1.171 . A
C260 O268 1.333 . A
C270 O289 1.282 . A
C270 O290 1.233 . A
C271 O281 1.291 . A
C271 O282 1.274 . A
Zn272 O276 1.930 . S
Zn272 O288 1.948 . S
Zn272 O290 2.053 . S
Zn272 O292 2.212 . S
Zn272 O295 1.929 . S
Zn273 O282 1.931 . S
Zn273 O286 1.950 . S
Zn273 O288 1.938 . S
Zn273 O289 1.954 . S
Zn274 O283 2.120 . S
Zn274 O288 1.992 . S
Zn274 O291 1.988 . S
Zn274 O294 2.121 . S
Zn275 O277 1.932 . S
Zn275 O284 1.951 . S
Zn275 O285 2.020 . S
Zn275 O288 1.885 . S
O276 C280 1.259 . A
O277 C280 1.301 . A
C278 O283 1.205 . A
C278 O284 1.262 . A
C279 O291 1.288 . A
C279 O292 1.229 . A
O281 H293 0.839 . S
O285 C296 1.267 . A
O286 C296 1.213 . A
C287 O294 1.171 . A
C287 O295 1.333 . A
C297 O316 1.282 . A
C297 O317 1.233 . A
C298 O308 1.291 . A
C298 O309 1.274 . A
Zn299 O303 1.930 . S
Zn299 O315 1.948 . S
Zn299 O317 2.053 . S
Zn299 O319 2.212 . S
Zn299 O322 1.929 . S
Zn300 O309 1.931 . S
Zn300 O313 1.950 . S
Zn300 O315 1.938 . S
Zn300 O316 1.954 . S
Zn301 O310 2.120 . S
Zn301 O315 1.992 . S
Zn301 O318 1.988 . S
Zn301 O321 2.121 . S
Zn302 O304 1.932 . S
Zn302 O311 1.951 . S
Zn302 O312 2.020 . S
Zn302 O315 1.885 . S
O303 C307 1.259 . A
O304 C307 1.301 . A
C305 O310 1.205 . A
C305 O311 1.262 . A
C306 O318 1.288 . A
C306 O319 1.229 . A
O308 H320 0.839 . S
O312 C323 1.267 . A
O313 C323 1.213 . A
C314 O321 1.171 . A
C314 O322 1.333 . A
C324 O343 1.282 . A
C324 O344 1.233 . A
C325 O335 1.291 . A
C325 O336 1.274 . A
Zn326 O330 1.930 . S
Zn326 O342 1.948 . S
Zn326 O344 2.053 . S
Zn326 O346 2.212 . S
Zn326 O349 1.929 . S
Zn327 O336 1.931 . S
Zn327 O340 1.950 . S
Zn327 O342 1.938 . S
Zn327 O343 1.954 . S
Zn328 O337 2.120 . S
Zn328 O342 1.992 . S
Zn328 O345 1.988 . S
Zn328 O348 2.121 . S
Zn329 O331 1.932 . S
Zn329 O338 1.951 . S
Zn329 O339 2.020 . S
Zn329 O342 1.885 . S
O330 C334 1.259 . A
O331 C334 1.301 . A
C332 O337 1.205 . A
C332 O338 1.262 . A
C333 O345 1.288 . A
C333 O346 1.229 . A
O335 H347 0.839 . S
O339 C350 1.267 . A
O340 C350 1.213 . A
C341 O348 1.171 . A
C341 O349 1.333 . A
C351 O370 1.282 . A
C351 O371 1.233 . A
C352 O362 1.291 . A
C352 O363 1.274 . A
Zn353 O357 1.930 . S
Zn353 O369 1.948 . S
Zn353 O371 2.053 . S
Zn353 O373 2.212 . S
Zn353 O376 1.929 . S
Zn354 O363 1.931 . S
Zn354 O367 1.950 . S
Zn354 O369 1.938 . S
Zn354 O370 1.954 . S
Zn355 O364 2.120 . S
Zn355 O369 1.992 . S
Zn355 O372 1.988 . S
Zn355 O375 2.121 . S
Zn356 O358 1.932 . S
Zn356 O365 1.951 . S
Zn356 O366 2.020 . S
Zn356 O369 1.885 . S
O357 C361 1.259 . A
O358 C361 1.301 . A
C359 O364 1.205 . A
C359 O365 1.262 . A
C360 O372 1.288 . A
C360 O373 1.229 . A
O362 H374 0.839 . S
O366 C377 1.267 . A
O367 C377 1.213 . A
C368 O375 1.171 . A
C368 O376 1.333 . A
C378 O397 1.282 . A
C378 O398 1.233 . A
C379 O389 1.291 . A
C379 O390 1.274 . A
Zn380 O384 1.930 . S
Zn380 O396 1.948 . S
Zn380 O398 2.053 . S
Zn380 O400 2.212 . S
Zn380 O403 1.929 . S
Zn381 O390 1.931 . S
Zn381 O394 1.950 . S
Zn381 O396 1.938 . S
Zn381 O397 1.954 . S
Zn382 O391 2.120 . S
Zn382 O396 1.992 . S
Zn382 O399 1.988 . S
Zn382 O402 2.121 . S
Zn383 O385 1.932 . S
Zn383 O392 1.951 . S
Zn383 O393 2.020 . S
Zn383 O396 1.885 . S
O384 C388 1.259 . A
O385 C388 1.301 . A
C386 O391 1.205 . A
C386 O392 1.262 . A
C387 O399 1.288 . A
C387 O400 1.229 . A
O389 H401 0.839 . S
O393 C404 1.267 . A
O394 C404 1.213 . A
C395 O402 1.171 . A
C395 O403 1.333 . A
C405 O424 1.282 . A
C405 O425 1.233 . A
C406 O416 1.291 . A
C406 O417 1.274 . A
Zn407 O411 1.930 . S
Zn407 O423 1.948 . S
Zn407 O425 2.053 . S
Zn407 O427 2.212 . S
Zn407 O430 1.929 . S
Zn408 O417 1.931 . S
Zn408 O421 1.950 . S
Zn408 O423 1.938 . S
Zn408 O424 1.954 . S
Zn409 O418 2.120 . S
Zn409 O423 1.992 . S
Zn409 O426 1.988 . S
Zn409 O429 2.121 . S
Zn410 O412 1.932 . S
Zn410 O419 1.951 . S
Zn410 O420 2.020 . S
Zn410 O423 1.885 . S
O411 C415 1.259 . A
O412 C415 1.301 . A
C413 O418 1.205 . A
C413 O419 1.262 . A
C414 O426 1.288 . A
C414 O427 1.229 . A
O416 H428 0.839 . S
O420 C431 1.267 . A
O421 C431 1.213 . A
C422 O429 1.171 . A
C422 O430 1.333 . A
C432 O451 1.282 . A
C432 O452 1.233 . A
C433 O443 1.291 . A
C433 O444 1.274 . A
Zn434 O438 1.930 . S
Zn434 O450 1.948 . S
Zn434 O452 2.053 . S
Zn434 O454 2.212 . S
Zn434 O457 1.929 . S
Zn435 O444 1.931 . S
Zn435 O448 1.950 . S
Zn435 O450 1.938 . S
Zn435 O451 1.954 . S
Zn436 O445 2.120 . S
Zn436 O450 1.992 . S
Zn436 O453 1.988 . S
Zn436 O456 2.121 . S
Zn437 O439 1.932 . S
Zn437 O446 1.951 . S
Zn437 O447 2.020 . S
Zn437 O450 1.885 . S
O438 C442 1.259 . A
O439 C442 1.301 . A
C440 O445 1.205 . A
C440 O446 1.262 . A
C441 O453 1.288 . A
C441 O454 1.229 . A
O443 H455 0.839 . S
O447 C458 1.267 . A
O448 C458 1.213 . A
C449 O456 1.171 . A
C449 O457 1.333 . A
C459 O478 1.282 . A
C459 O479 1.233 . A
C460 O470 1.291 . A
C460 O471 1.274 . A
Zn461 O465 1.930 . S
Zn461 O477 1.948 . S
Zn461 O479 2.053 . S
Zn461 O481 2.212 . S
Zn461 O484 1.929 . S
Zn462 O471 1.931 . S
Zn462 O475 1.950 . S
Zn462 O477 1.938 . S
Zn462 O478 1.954 . S
Zn463 O472 2.120 . S
Zn463 O477 1.992 . S
Zn463 O480 1.988 . S
Zn463 O483 2.121 . S
Zn464 O466 1.932 . S
Zn464 O473 1.951 . S
Zn464 O474 2.020 . S
Zn464 O477 1.885 . S
O465 C469 1.259 . A
O466 C469 1.301 . A
C467 O472 1.205 . A
C467 O473 1.262 . A
C468 O480 1.288 . A
C468 O481 1.229 . A
O470 H482 0.839 . S
O474 C485 1.267 . A
O475 C485 1.213 . A
C476 O483 1.171 . A
C476 O484 1.333 . A
C486 O505 1.282 . A
C486 O506 1.233 . A
C487 O497 1.291 . A
C487 O498 1.274 . A
Zn488 O492 1.930 . S
Zn488 O504 1.948 . S
Zn488 O506 2.053 . S
Zn488 O508 2.212 . S
Zn488 O511 1.929 . S
Zn489 O498 1.931 . S
Zn489 O502 1.950 . S
Zn489 O504 1.938 . S
Zn489 O505 1.954 . S
Zn490 O499 2.120 . S
Zn490 O504 1.992 . S
Zn490 O507 1.988 . S
Zn490 O510 2.121 . S
Zn491 O493 1.932 . S
Zn491 O500 1.951 . S
Zn491 O501 2.020 . S
Zn491 O504 1.885 . S
O492 C496 1.259 . A
O493 C496 1.301 . A
C494 O499 1.205 . A
C494 O500 1.262 . A
C495 O507 1.288 . A
C495 O508 1.229 . A
O497 H509 0.839 . S
O501 C512 1.267 . A
O502 C512 1.213 . A
C503 O510 1.171 . A
C503 O511 1.333 . A
C513 O532 1.282 . A
C513 O533 1.233 . A
C514 O524 1.291 . A
C514 O525 1.274 . A
Zn515 O519 1.930 . S
Zn515 O531 1.948 . S
Zn515 O533 2.053 . S
Zn515 O535 2.212 . S
Zn515 O538 1.929 . S
Zn516 O525 1.931 . S
Zn516 O529 1.950 . S
Zn516 O531 1.938 . S
Zn516 O532 1.954 . S
Zn517 O526 2.120 . S
Zn517 O531 1.992 . S
Zn517 O534 1.988 . S
Zn517 O537 2.121 . S
Zn518 O520 1.932 . S
Zn518 O527 1.951 . S
Zn518 O528 2.020 . S
Zn518 O531 1.885 . S
O519 C523 1.259 . A
O520 C523 1.301 . A
C521 O526 1.205 . A
C521 O527 1.262 . A
C522 O534 1.288 . A
C522 O535 1.229 . A
O524 H536 0.839 . S
O528 C539 1.267 . A
O529 C539 1.213 . A
C530 O537 1.171 . A
C530 O538 1.333 . A
C540 O559 1.282 . A
C540 O560 1.233 . A
C541 O551 1.291 . A
C541 O552 1.274 . A
Zn542 O546 1.930 . S
Zn542 O558 1.948 . S
Zn542 O560 2.053 . S
Zn542 O562 2.212 . S
Zn542 O565 1.929 . S
Zn543 O552 1.931 . S
Zn543 O556 1.950 . S
Zn543 O558 1.938 . S
Zn543 O559 1.954 . S
Zn544 O553 2.120 . S
Zn544 O558 1.992 . S
Zn544 O561 1.988 . S
Zn544 O564 2.121 . S
Zn545 O547 1.932 . S
Zn545 O554 1.951 . S
Zn545 O555 2.020 . S
Zn545 O558 1.885 . S
O546 C550 1.259 . A
O547 C550 1.301 . A
C548 O553 1.205 . A
C548 O554 1.262 . A
C549 O561 1.288 . A
C549 O562 1.229 . A
O551 H563 0.839 . S
O555 C566 1.267 . A
O556 C566 1.213 . A
C557 O564 1.171 . A
C557 O565 1.333 . A
C567 O586 1.282 . A
C567 O587 1.233 . A
C568 O578 1.291 . A
C568 O579 1.274 . A
Zn569 O573 1.930 . S
Zn569 O585 1.948 . S
Zn569 O587 2.053 . S
Zn569 O589 2.212 . S
Zn569 O592 1.929 . S
Zn570 O579 1.931 . S
Zn570 O583 1.950 . S
Zn570 O585 1.938 . S
Zn570 O586 1.954 . S
Zn571 O580 2.120 . S
Zn571 O585 1.992 . S
Zn571 O588 1.988 . S
Zn571 O591 2.121 . S
Zn572 O574 1.932 . S
Zn572 O581 1.951 . S
Zn572 O582 2.020 . S
Zn572 O585 1.885 . S
O573 C577 1.259 . A
O574 C577 1.301 . A
C575 O580 1.205 . A
C575 O581 1.262 . A
C576 O588 1.288 . A
C576 O589 1.229 . A
O578 H590 0.839 . S
O582 C593 1.267 . A
O583 C593 1.213 . A
C584 O591 1.171 . A
C584 O592 1.333 . A
C594 O613 1.282 . A
C594 O614 1.233 . A
C595 O605 1.291 . A
C595 O606 1.274 . A
Zn596 O600 1.930 . S
Zn596 O612 1.948 . S
Zn596 O614 2.053 . S
Zn596 O616 2.212 . S
Zn596 O619 1.929 . S
Zn597 O606 1.931 . S
Zn597 O610 1.950 . S
Zn597 O612 1.938 . S
Zn597 O613 1.954 . S
Zn598 O607 2.120 . S
Zn598 O612 1.992 . S
Zn598 O615 1.988 . S
Zn598 O618 2.121 . S
Zn599 O601 1.932 . S
Zn599 O608 1.951 . S
Zn599 O609 2.020 . S
Zn599 O612 1.885 . S
O600 C604 1.259 . A
O601 C604 1.301 . A
C602 O607 1.205 . A
C602 O608 1.262 . A
C603 O615 1.288 . A
C603 O616 1.229 . A
O605 H617 0.839 . S
O609 C620 1.267 . A
O610 C620 1.213 . A
C611 O618 1.171 . A
C611 O619 1.333 . A
C621 O640 1.282 . A
C621 O641 1.233 . A
C622 O632 1.291 . A
C622 O633 1.274 . A
Zn623 O627 1.930 . S
Zn623 O639 1.948 . S
Zn623 O641 2.053 . S
Zn623 O643 2.212 . S
Zn623 O646 1.929 . S
Zn624 O633 1.931 . S
Zn624 O637 1.950 . S
Zn624 O639 1.938 . S
Zn624 O640 1.954 . S
Zn625 O634 2.120 . S
Zn625 O639 1.992 . S
Zn625 O642 1.988 . S
Zn625 O645 2.121 . S
Zn626 O628 1.932 . S
Zn626 O635 1.951 . S
Zn626 O636 2.020 . S
Zn626 O639 1.885 . S
O627 C631 1.259 . A
O628 C631 1.301 . A
C629 O634 1.205 . A
C629 O635 1.262 . A
C630 O642 1.288 . A
C630 O643 1.229 . A
O632 H644 0.839 . S
O636 C647 1.267 . A
O637 C647 1.213 . A
C638 O645 1.171 . A
C638 O646 1.333 . A
C648 C649 1.390 . A
C648 H653 0.930 . S
C648 N656 1.344 . A
C649 C650 1.372 . A
C650 C651 1.383 . A
C650 H654 0.930 . S
C651 C652 1.376 . A
C652 H655 0.930 . S
C652 N656 1.332 . A
C657 C658 1.390 . A
C657 H662 0.930 . S
C657 N665 1.344 . A
C658 C659 1.372 . A
C659 C660 1.383 . A
C659 H663 0.930 . S
C660 C661 1.376 . A
C661 H664 0.930 . S
C661 N665 1.332 . A
C666 C667 1.390 . A
C666 H671 0.930 . S
C666 N674 1.344 . A
C667 C668 1.372 . A
C668 C669 1.383 . A
C668 H672 0.930 . S
C669 C670 1.376 . A
C670 H673 0.930 . S
C670 N674 1.332 . A
C675 C676 1.390 . A
C675 H680 0.930 . S
C675 N683 1.344 . A
C676 C677 1.372 . A
C677 C678 1.383 . A
C677 H681 0.930 . S
C678 C679 1.376 . A
C679 H682 0.930 . S
C679 N683 1.332 . A
C684 C685 1.390 . A
C684 H689 0.930 . S
C684 N692 1.344 . A
C685 C686 1.372 . A
C686 C687 1.383 . A
C686 H690 0.930 . S
C687 C688 1.376 . A
C688 H691 0.930 . S
C688 N692 1.332 . A
C693 C694 1.390 . A
C693 H698 0.930 . S
C693 N701 1.344 . A
C694 C695 1.372 . A
C695 C696 1.383 . A
C695 H699 0.930 . S
C696 C697 1.376 . A
C697 H700 0.930 . S
C697 N701 1.332 . A
C702 C703 1.390 . A
C702 H707 0.930 . S
C702 N710 1.344 . A
C703 C704 1.372 . A
C704 C705 1.383 . A
C704 H708 0.930 . S
C705 C706 1.376 . A
C706 H709 0.930 . S
C706 N710 1.332 . A
C711 C712 1.390 . A
C711 H716 0.930 . S
C711 N719 1.344 . A
C712 C713 1.372 . A
C713 C714 1.383 . A
C713 H717 0.930 . S
C714 C715 1.376 . A
C715 H718 0.930 . S
C715 N719 1.332 . A
C720 C721 1.390 . A
C720 H725 0.930 . S
C720 N728 1.344 . A
C721 C722 1.372 . A
C722 C723 1.383 . A
C722 H726 0.930 . S
C723 C724 1.376 . A
C724 H727 0.930 . S
C724 N728 1.332 . A
C729 C730 1.390 . A
C729 H734 0.930 . S
C729 N737 1.344 . A
C730 C731 1.372 . A
C731 C732 1.383 . A
C731 H735 0.930 . S
C732 C733 1.376 . A
C733 H736 0.930 . S
C733 N737 1.332 . A
C738 C739 1.390 . A
C738 H743 0.930 . S
C738 N746 1.344 . A
C739 C740 1.372 . A
C740 C741 1.383 . A
C740 H744 0.930 . S
C741 C742 1.376 . A
C742 H745 0.930 . S
C742 N746 1.332 . A
C747 C748 1.390 . A
C747 H752 0.930 . S
C747 N755 1.344 . A
C748 C749 1.372 . A
C749 C750 1.383 . A
C749 H753 0.930 . S
C750 C751 1.376 . A
C751 H754 0.930 . S
C751 N755 1.332 . A
C756 C757 1.390 . A
C756 H761 0.930 . S
C756 N764 1.344 . A
C757 C758 1.372 . A
C758 C759 1.383 . A
C758 H762 0.930 . S
C759 C760 1.376 . A
C760 H763 0.930 . S
C760 N764 1.332 . A
C765 C766 1.390 . A
C765 H770 0.930 . S
C765 N773 1.344 . A
C766 C767 1.372 . A
C767 C768 1.383 . A
C767 H771 0.930 . S
C768 C769 1.376 . A
C769 H772 0.930 . S
C769 N773 1.332 . A
C774 C775 1.390 . A
C774 H779 0.930 . S
C774 N782 1.344 . A
C775 C776 1.372 . A
C776 C777 1.383 . A
C776 H780 0.930 . S
C777 C778 1.376 . A
C778 H781 0.930 . S
C778 N782 1.332 . A
C783 C784 1.390 . A
C783 H788 0.930 . S
C783 N791 1.344 . A
C784 C785 1.372 . A
C785 C786 1.383 . A
C785 H789 0.930 . S
C786 C787 1.376 . A
C787 H790 0.930 . S
C787 N791 1.332 . A
C792 C793 1.390 . A
C792 H797 0.930 . S
C792 N800 1.344 . A
C793 C794 1.372 . A
C794 C795 1.383 . A
C794 H798 0.930 . S
C795 C796 1.376 . A
C796 H799 0.930 . S
C796 N800 1.332 . A
C801 C802 1.390 . A
C801 H806 0.930 . S
C801 N809 1.344 . A
C802 C803 1.372 . A
C803 C804 1.383 . A
C803 H807 0.930 . S
C804 C805 1.376 . A
C805 H808 0.930 . S
C805 N809 1.332 . A
C810 C811 1.390 . A
C810 H815 0.930 . S
C810 N818 1.344 . A
C811 C812 1.372 . A
C812 C813 1.383 . A
C812 H816 0.930 . S
C813 C814 1.376 . A
C814 H817 0.930 . S
C814 N818 1.332 . A
C819 C820 1.390 . A
C819 H824 0.930 . S
C819 N827 1.344 . A
C820 C821 1.372 . A
C821 C822 1.383 . A
C821 H825 0.930 . S
C822 C823 1.376 . A
C823 H826 0.930 . S
C823 N827 1.332 . A
C828 C829 1.390 . A
C828 H833 0.930 . S
C828 N836 1.344 . A
C829 C830 1.372 . A
C830 C831 1.383 . A
C830 H834 0.930 . S
C831 C832 1.376 . A
C832 H835 0.930 . S
C832 N836 1.332 . A
C837 C838 1.390 . A
C837 H842 0.930 . S
C837 N845 1.344 . A
C838 C839 1.372 . A
C839 C840 1.383 . A
C839 H843 0.930 . S
C840 C841 1.376 . A
C841 H844 0.930 . S
C841 N845 1.332 . A
C846 C847 1.390 . A
C846 H851 0.930 . S
C846 N854 1.344 . A
C847 C848 1.372 . A
C848 C849 1.383 . A
C848 H852 0.930 . S
C849 C850 1.376 . A
C850 H853 0.930 . S
C850 N854 1.332 . A
C855 C856 1.390 . A
C855 H860 0.930 . S
C855 N863 1.344 . A
C856 C857 1.372 . A
C857 C858 1.383 . A
C857 H861 0.930 . S
C858 C859 1.376 . A
C859 H862 0.930 . S
C859 N863 1.332 . A
C864 C865 1.390 . A
C864 H869 0.930 . S
C864 N872 1.344 . A
C865 C866 1.377 . A
C866 C867 1.378 1_455 A
C866 H870 0.929 1_455 S
C867 C868 1.376 . A
C868 H871 0.930 . S
C868 N872 1.332 1_655 A
C873 C874 1.390 . A
C873 H878 0.930 . S
C873 N881 1.341 . A
C874 C875 1.398 . A
C875 C876 1.357 1_565 A
C875 H879 0.930 . S
C876 C877 1.376 . A
C877 H880 0.930 . S
C877 N881 1.334 1_545 A
C882 C883 1.390 . A
C882 H887 0.930 . S
C882 N890 1.344 . A
C883 C884 1.377 . A
C884 C885 1.378 1_455 A
C884 H888 0.929 1_455 S
C885 C886 1.376 . A
C886 H889 0.930 . S
C886 N890 1.332 1_655 A
C891 C892 1.390 . A
C891 H896 0.930 . S
C891 N899 1.327 1_554 A
C892 C893 1.401 . A
C893 C894 1.354 1_554 A
C893 H897 0.932 . S
C894 C895 1.376 . A
C895 H898 0.930 . S
C895 N899 1.349 . A
C900 C901 1.390 . A
C900 H905 0.930 . S
C900 N908 1.344 . A
C901 C902 1.393 . A
C902 C903 1.362 1_545 A
C902 H906 0.930 . S
C903 C904 1.376 . A
C904 H907 0.930 . S
C904 N908 1.332 1_565 A
C909 C910 1.390 . A
C909 H914 0.930 . S
C909 N917 1.319 1_565 A
C910 C911 1.398 . A
C911 C912 1.356 1_565 A
C911 H915 0.931 . S
C912 C913 1.376 . A
C913 H916 0.930 . S
C913 N917 1.356 . A
C918 C919 1.390 . A
C918 H923 0.930 . S
C918 N926 1.344 1_655 A
C919 C920 1.405 . A
C920 C921 1.349 1_655 A
C920 H924 0.933 . S
C921 C922 1.376 . A
C922 H925 0.930 . S
C922 N926 1.332 . A
C927 C928 1.390 . A
C927 H932 0.930 . S
C927 N935 1.344 . A
C928 C929 1.384 . A
C929 C930 1.371 1_545 A
C929 H933 0.930 1_545 S
C930 C931 1.376 . A
C931 H934 0.930 . S
C931 N935 1.332 1_565 A
C936 C937 1.390 . A
C936 H941 0.930 . S
C936 N944 1.344 1_655 A
C937 C938 1.405 . A
C938 C939 1.348 1_655 A
C938 H942 0.933 . S
C939 C940 1.376 . A
C940 H943 0.930 . S
C940 N944 1.332 . A
C945 C946 1.390 . A
C945 H950 0.930 . S
C945 N953 1.326 1_554 A
C946 C947 1.401 . A
C947 C948 1.354 1_554 A
C947 H951 0.932 . S
C948 C949 1.376 . A
C949 H952 0.930 . S
C949 N953 1.350 . A
C954 C955 1.390 . A
C954 H959 0.930 . S
C954 N962 1.344 1_554 A
C955 C956 1.404 . A
C956 C957 1.350 1_554 A
C956 H960 0.932 . S
C957 C958 1.376 . A
C958 H961 0.930 . S
C958 N962 1.332 . A
C963 C964 1.390 . A
C963 H968 0.930 . S
C963 N971 1.344 . A
C964 C965 1.379 . A
C965 C966 1.376 1_554 A
C965 H969 0.929 1_554 S
C966 C967 1.376 . A
C967 H970 0.930 . S
C967 N971 1.332 1_556 A
C972 C973 1.390 . A
C972 H977 0.930 . S
C972 N980 1.344 . A
C973 C974 1.372 . A
C974 C975 1.383 . A
C974 H978 0.930 . S
C975 C976 1.376 . A
C976 H979 0.930 . S
C976 N980 1.332 . A
C981 C982 1.390 . A
C981 H986 0.930 . S
C981 N989 1.344 . A
C982 C983 1.372 . A
C983 C984 1.383 . A
C983 H987 0.930 . S
C984 C985 1.376 . A
C985 H988 0.930 . S
C985 N989 1.332 . A
C990 C991 1.390 . A
C990 H995 0.930 . S
C990 N998 1.344 . A
C991 C992 1.372 . A
C992 C993 1.383 . A
C992 H996 0.930 . S
C993 C994 1.376 . A
C994 H997 0.930 . S
C994 N998 1.332 . A
C999 C1000 1.390 . A
C999 H1004 0.930 . S
C999 N1007 1.344 . A
C1000 C1001 1.372 . A
C1001 C1002 1.383 . A
C1001 H1005 0.930 . S
C1002 C1003 1.376 . A
C1003 H1006 0.930 . S
C1003 N1007 1.332 . A
C1008 C1009 1.390 . A
C1008 H1013 0.930 . S
C1008 N1016 1.344 . A
C1009 C1010 1.372 . A
C1010 C1011 1.383 . A
C1010 H1014 0.930 . S
C1011 C1012 1.376 . A
C1012 H1015 0.930 . S
C1012 N1016 1.332 . A
C1017 C1018 1.390 . A
C1017 H1022 0.930 . S
C1017 N1025 1.344 . A
C1018 C1019 1.372 . A
C1019 C1020 1.383 . A
C1019 H1023 0.930 . S
C1020 C1021 1.376 . A
C1021 H1024 0.930 . S
C1021 N1025 1.332 . A
C1026 C1027 1.390 . A
C1026 H1031 0.930 . S
C1026 N1034 1.344 . A
C1027 C1028 1.372 . A
C1028 C1029 1.383 . A
C1028 H1032 0.930 . S
C1029 C1030 1.376 . A
C1030 H1033 0.930 . S
C1030 N1034 1.332 . A
C1035 C1036 1.390 . A
C1035 H1040 0.930 . S
C1035 N1043 1.344 . A
C1036 C1037 1.372 . A
C1037 C1038 1.383 . A
C1037 H1041 0.930 . S
C1038 C1039 1.376 . A
C1039 H1042 0.930 . S
C1039 N1043 1.332 . A
C1044 C1045 1.390 . A
C1044 H1049 0.930 . S
C1044 N1052 1.344 . A
C1045 C1046 1.372 . A
C1046 C1047 1.383 . A
C1046 H1050 0.930 . S
C1047 C1048 1.376 . A
C1048 H1051 0.930 . S
C1048 N1052 1.332 . A
C1053 C1054 1.390 . A
C1053 H1058 0.930 . S
C1053 N1061 1.344 . A
C1054 C1055 1.372 . A
C1055 C1056 1.383 . A
C1055 H1059 0.930 . S
C1056 C1057 1.376 . A
C1057 H1060 0.930 . S
C1057 N1061 1.332 . A
C1062 C1063 1.390 . A
C1062 H1067 0.930 . S
C1062 N1070 1.344 . A
C1063 C1064 1.372 . A
C1064 C1065 1.383 . A
C1064 H1068 0.930 . S
C1065 C1066 1.376 . A
C1066 H1069 0.930 . S
C1066 N1070 1.332 . A
C1071 C1072 1.390 . A
C1071 H1076 0.930 . S
C1071 N1079 1.344 . A
C1072 C1073 1.372 . A
C1073 C1074 1.383 . A
C1073 H1077 0.930 . S
C1074 C1075 1.376 . A
C1075 H1078 0.930 . S
C1075 N1079 1.332 . A
C649 C386 1.361 . S
C651 C17 1.308 . S
C658 C44 1.339 . S
C660 C278 1.401 . S
C667 C305 1.334 . S
C669 C71 1.275 . S
C676 C224 1.331 . S
C678 C98 1.407 . S
C685 C332 1.323 . S
C687 C125 1.411 . S
C694 C413 1.278 . S
C696 C152 1.279 . S
C703 C494 1.364 . S
C705 C179 1.354 . S
C712 C584 1.344 . S
C714 C89 1.396 . S
C721 C260 1.231 . S
C723 C116 1.322 . S
C730 C197 1.352 . S
C732 C233 1.385 . S
C739 C611 1.290 . S
C741 C251 1.297 . S
C748 C359 1.286 . S
C750 C638 1.274 . S
C757 C368 1.319 . S
C759 C35 1.413 . S
C766 C575 1.302 . S
C768 C206 1.417 . S
C775 C422 1.348 . S
C777 C521 1.317 . S
C784 C170 1.315 . S
C786 C449 1.414 . S
C793 C440 1.318 . S
C795 C476 1.269 . S
C802 C467 1.354 . S
C804 C503 1.382 . S
C811 C530 1.262 . S
C813 C548 1.304 . S
C820 C557 1.224 . S
C822 C143 1.329 . S
C829 C395 1.330 . S
C831 C62 1.407 . S
C838 C341 1.209 . S
C840 C602 1.364 . S
C847 C287 1.213 . S
C849 C629 1.346 . S
C856 C8 1.364 . S
C858 C314 1.317 . S
C865 C595 1.381 . S
C867 C1 1.564 . S
C874 C82 1.605 . S
C876 C28 1.634 . S
C883 C109 1.371 . S
C885 C55 1.551 . S
C892 C163 1.611 . S
C894 C136 1.613 . S
C901 C622 1.582 . S
C903 C190 1.657 . S
C910 C217 1.438 . S
C912 C352 1.401 . S
C919 C298 1.594 . S
C921 C244 1.539 . S
C928 C271 1.517 . S
C930 C568 1.657 . S
C937 C379 1.579 . S
C939 C325 1.513 . S
C946 C433 1.611 . S
C948 C406 1.612 . S
C955 C460 1.605 . S
C957 C514 1.568 . S
C964 C487 1.347 . S
C966 C541 1.507 . S
C973 C145 1.387 . S
C975 C10 1.383 . S
C982 C37 1.375 . S
C984 C496 1.370 . S
C991 C172 1.357 . S
C993 C64 1.457 . S
C1000 C91 1.401 . S
C1002 C442 1.444 . S
C1009 C118 1.375 . S
C1011 C469 1.370 . S
C1018 C199 1.315 . S
C1020 C415 1.434 . S
C1027 C253 1.312 . S
C1029 C226 1.340 . S
C1036 C388 1.383 . S
C1038 C280 1.458 . S
C1045 C577 1.312 . S
C1047 C307 1.340 . S
C1054 C334 1.371 . S
C1056 C361 1.459 . S
C1063 C604 1.339 . S
C1065 C523 1.451 . S
C1072 C631 1.314 . S
C1074 C550 1.340 . S
