# Generated by pormake.
# Topology lta, (4)-cn, num edge types: 1
# Building blocks:
#     Node 0, Type 0, BuildingBlock: N446, # of connection points: 7
#     Node 1, Type 0, BuildingBlock: N446, # of connection points: 7
#     Node 2, Type 0, BuildingBlock: N446, # of connection points: 7
#     Node 3, Type 0, BuildingBlock: N446, # of connection points: 7
#     Node 4, Type 0, BuildingBlock: N446, # of connection points: 7
#     Node 5, Type 0, BuildingBlock: N446, # of connection points: 7
#     Node 6, Type 0, BuildingBlock: N446, # of connection points: 7
#     Node 7, Type 0, BuildingBlock: N446, # of connection points: 7
#     Node 8, Type 0, BuildingBlock: N446, # of connection points: 7
#     Node 9, Type 0, BuildingBlock: N446, # of connection points: 7
#     Node 10, Type 0, BuildingBlock: N446, # of connection points: 7
#     Node 11, Type 0, BuildingBlock: N446, # of connection points: 7
#     Node 12, Type 0, BuildingBlock: N446, # of connection points: 7
#     Node 13, Type 0, BuildingBlock: N446, # of connection points: 7
#     Node 14, Type 0, BuildingBlock: N446, # of connection points: 7
#     Node 15, Type 0, BuildingBlock: N446, # of connection points: 7
#     Node 16, Type 0, BuildingBlock: N446, # of connection points: 7
#     Node 17, Type 0, BuildingBlock: N446, # of connection points: 7
#     Node 18, Type 0, BuildingBlock: N446, # of connection points: 7
#     Node 19, Type 0, BuildingBlock: N446, # of connection points: 7
#     Node 20, Type 0, BuildingBlock: N446, # of connection points: 7
#     Node 21, Type 0, BuildingBlock: N446, # of connection points: 7
#     Node 22, Type 0, BuildingBlock: N446, # of connection points: 7
#     Node 23, Type 0, BuildingBlock: N446, # of connection points: 7
#     Edge 24, Type (0, 0), BuildingBlock: E228, # of connection points: 2
#     Edge 25, Type (0, 0), BuildingBlock: E228, # of connection points: 2
#     Edge 26, Type (0, 0), BuildingBlock: E228, # of connection points: 2
#     Edge 27, Type (0, 0), BuildingBlock: E228, # of connection points: 2
#     Edge 28, Type (0, 0), BuildingBlock: E228, # of connection points: 2
#     Edge 29, Type (0, 0), BuildingBlock: E228, # of connection points: 2
#     Edge 30, Type (0, 0), BuildingBlock: E228, # of connection points: 2
#     Edge 31, Type (0, 0), BuildingBlock: E228, # of connection points: 2
#     Edge 32, Type (0, 0), BuildingBlock: E228, # of connection points: 2
#     Edge 33, Type (0, 0), BuildingBlock: E228, # of connection points: 2
#     Edge 34, Type (0, 0), BuildingBlock: E228, # of connection points: 2
#     Edge 35, Type (0, 0), BuildingBlock: E228, # of connection points: 2
#     Edge 36, Type (0, 0), BuildingBlock: E228, # of connection points: 2
#     Edge 37, Type (0, 0), BuildingBlock: E228, # of connection points: 2
#     Edge 38, Type (0, 0), BuildingBlock: E228, # of connection points: 2
#     Edge 39, Type (0, 0), BuildingBlock: E228, # of connection points: 2
#     Edge 40, Type (0, 0), BuildingBlock: E228, # of connection points: 2
#     Edge 41, Type (0, 0), BuildingBlock: E228, # of connection points: 2
#     Edge 42, Type (0, 0), BuildingBlock: E228, # of connection points: 2
#     Edge 43, Type (0, 0), BuildingBlock: E228, # of connection points: 2
#     Edge 44, Type (0, 0), BuildingBlock: E228, # of connection points: 2
#     Edge 45, Type (0, 0), BuildingBlock: E228, # of connection points: 2
#     Edge 46, Type (0, 0), BuildingBlock: E228, # of connection points: 2
#     Edge 47, Type (0, 0), BuildingBlock: E228, # of connection points: 2
#     Edge 48, Type (0, 0), BuildingBlock: E228, # of connection points: 2
#     Edge 49, Type (0, 0), BuildingBlock: E228, # of connection points: 2
#     Edge 50, Type (0, 0), BuildingBlock: E228, # of connection points: 2
#     Edge 51, Type (0, 0), BuildingBlock: E228, # of connection points: 2
#     Edge 52, Type (0, 0), BuildingBlock: E228, # of connection points: 2
#     Edge 53, Type (0, 0), BuildingBlock: E228, # of connection points: 2
#     Edge 54, Type (0, 0), BuildingBlock: E228, # of connection points: 2
#     Edge 55, Type (0, 0), BuildingBlock: E228, # of connection points: 2
#     Edge 56, Type (0, 0), BuildingBlock: E228, # of connection points: 2
#     Edge 57, Type (0, 0), BuildingBlock: E228, # of connection points: 2
#     Edge 58, Type (0, 0), BuildingBlock: E228, # of connection points: 2
#     Edge 59, Type (0, 0), BuildingBlock: E228, # of connection points: 2
#     Edge 60, Type (0, 0), BuildingBlock: E228, # of connection points: 2
#     Edge 61, Type (0, 0), BuildingBlock: E228, # of connection points: 2
#     Edge 62, Type (0, 0), BuildingBlock: E228, # of connection points: 2
#     Edge 63, Type (0, 0), BuildingBlock: E228, # of connection points: 2
#     Edge 64, Type (0, 0), BuildingBlock: E228, # of connection points: 2
#     Edge 65, Type (0, 0), BuildingBlock: E228, # of connection points: 2
#     Edge 66, Type (0, 0), BuildingBlock: E228, # of connection points: 2
#     Edge 67, Type (0, 0), BuildingBlock: E228, # of connection points: 2
#     Edge 68, Type (0, 0), BuildingBlock: E228, # of connection points: 2
#     Edge 69, Type (0, 0), BuildingBlock: E228, # of connection points: 2
#     Edge 70, Type (0, 0), BuildingBlock: E228, # of connection points: 2
#     Edge 71, Type (0, 0), BuildingBlock: E228, # of connection points: 2
# Relax obj value: 0.183
# Max RMSD: 0.314
# Mean RMSD: 0.249
data_lta+N446+E228
_symmetry_space_group_name_H-M    P1
_symmetry_Int_Tables_number       1
_symmetry_cell_setting            triclinic
loop_
_symmetry_equiv_pos_as_xyz
'x, y, z'
_cell_length_a     47.104
_cell_length_b     47.104
_cell_length_c     50.462
_cell_angle_alpha  90.000
_cell_angle_beta   90.000
_cell_angle_gamma  90.000
loop_
_atom_site_label
_atom_site_type_symbol
_atom_site_fract_x
_atom_site_fract_y
_atom_site_fract_z
_atom_type_partial_charge
O0 O 0.80719 0.51997 0.71855 0.00000
O1 O 0.82818 0.44980 0.65185 0.00000
O2 O 0.84066 0.57052 0.70431 0.00000
O3 O 0.85872 0.53991 0.61761 0.00000
O4 O 0.90613 0.50491 0.64409 0.00000
O5 O 0.84865 0.51001 0.67592 0.00000
Zn6 Zn 0.82308 0.54206 0.68113 0.00000
Zn7 Zn 0.87612 0.51099 0.70388 0.00000
Zn8 Zn 0.82166 0.47852 0.67963 0.00000
Zn9 Zn 0.86453 0.50794 0.64098 0.00000
O10 O 0.83653 0.56607 0.64827 0.00000
O11 O 0.87797 0.47931 0.72851 0.00000
O12 O 0.87718 0.54736 0.72263 0.00000
O13 O 0.85622 0.47212 0.62265 0.00000
O14 O 0.84747 0.45390 0.70482 0.00000
O15 O 0.91430 0.50881 0.68771 0.00000
C16 C 0.79037 0.50017 0.71994 0.00000
C17 C 0.86310 0.56957 0.71797 0.00000
C18 C 0.86562 0.45669 0.72242 0.00000
C19 C 0.84435 0.45049 0.63218 0.00000
C20 C 0.84880 0.56299 0.62676 0.00000
C21 C 0.77656 0.52128 0.65609 0.00000
C22 C 0.92213 0.50469 0.66419 0.00000
O23 O 0.78379 0.54258 0.66978 0.00000
O24 O 0.79179 0.50069 0.65140 0.00000
O25 O 0.79033 0.47841 0.70466 0.00000
O26 O 0.48003 0.19281 0.28145 0.00000
O27 O 0.55020 0.17181 0.34815 0.00000
O28 O 0.42948 0.15934 0.29569 0.00000
O29 O 0.46009 0.14127 0.38239 0.00000
O30 O 0.49509 0.09387 0.35591 0.00000
O31 O 0.48999 0.15134 0.32408 0.00000
Zn32 Zn 0.45794 0.17692 0.31887 0.00000
Zn33 Zn 0.48901 0.12387 0.29612 0.00000
Zn34 Zn 0.52148 0.17833 0.32037 0.00000
Zn35 Zn 0.49206 0.13547 0.35902 0.00000
O36 O 0.43393 0.16346 0.35173 0.00000
O37 O 0.52069 0.12202 0.27149 0.00000
O38 O 0.45264 0.12282 0.27737 0.00000
O39 O 0.52788 0.14377 0.37735 0.00000
O40 O 0.54610 0.15252 0.29518 0.00000
O41 O 0.49120 0.08569 0.31229 0.00000
C42 C 0.49983 0.20962 0.28006 0.00000
C43 C 0.43043 0.13690 0.28203 0.00000
C44 C 0.54331 0.13437 0.27758 0.00000
C45 C 0.54951 0.15565 0.36782 0.00000
C46 C 0.43701 0.15119 0.37324 0.00000
C47 C 0.47872 0.22343 0.34391 0.00000
C48 C 0.49531 0.07787 0.33581 0.00000
O49 O 0.45742 0.21621 0.33022 0.00000
O50 O 0.49931 0.20820 0.34860 0.00000
O51 O 0.52160 0.20967 0.29534 0.00000
O52 O 0.80719 0.48003 0.28145 0.00000
O53 O 0.82818 0.55020 0.34815 0.00000
O54 O 0.84066 0.42948 0.29569 0.00000
O55 O 0.85872 0.46009 0.38239 0.00000
O56 O 0.90613 0.49509 0.35591 0.00000
O57 O 0.84865 0.48999 0.32408 0.00000
Zn58 Zn 0.82308 0.45794 0.31887 0.00000
Zn59 Zn 0.87613 0.48901 0.29612 0.00000
Zn60 Zn 0.82166 0.52148 0.32037 0.00000
Zn61 Zn 0.86453 0.49206 0.35902 0.00000
O62 O 0.83654 0.43393 0.35173 0.00000
O63 O 0.87797 0.52069 0.27149 0.00000
O64 O 0.87718 0.45264 0.27737 0.00000
O65 O 0.85622 0.52788 0.37735 0.00000
O66 O 0.84747 0.54610 0.29518 0.00000
O67 O 0.91431 0.49119 0.31229 0.00000
C68 C 0.79037 0.49982 0.28006 0.00000
C69 C 0.86310 0.43043 0.28204 0.00000
C70 C 0.86562 0.54331 0.27758 0.00000
C71 C 0.84435 0.54950 0.36782 0.00000
C72 C 0.84880 0.43701 0.37325 0.00000
C73 C 0.77656 0.47872 0.34391 0.00000
C74 C 0.92213 0.49531 0.33581 0.00000
O75 O 0.78379 0.45742 0.33022 0.00000
O76 O 0.79179 0.49931 0.34860 0.00000
O77 O 0.79033 0.52159 0.29534 0.00000
O78 O 0.51997 0.80719 0.28145 0.00000
O79 O 0.44980 0.82819 0.34815 0.00000
O80 O 0.57052 0.84066 0.29569 0.00000
O81 O 0.53991 0.85873 0.38239 0.00000
O82 O 0.50491 0.90613 0.35591 0.00000
O83 O 0.51001 0.84866 0.32408 0.00000
Zn84 Zn 0.54206 0.82308 0.31887 0.00000
Zn85 Zn 0.51099 0.87613 0.29612 0.00000
Zn86 Zn 0.47852 0.82166 0.32037 0.00000
Zn87 Zn 0.50794 0.86453 0.35902 0.00000
O88 O 0.56607 0.83654 0.35173 0.00000
O89 O 0.47931 0.87798 0.27148 0.00000
O90 O 0.54736 0.87718 0.27737 0.00000
O91 O 0.47212 0.85622 0.37734 0.00000
O92 O 0.45390 0.84748 0.29518 0.00000
O93 O 0.50880 0.91431 0.31228 0.00000
C94 C 0.50017 0.79038 0.28006 0.00000
C95 C 0.56957 0.86310 0.28203 0.00000
C96 C 0.45669 0.86563 0.27757 0.00000
C97 C 0.45049 0.84435 0.36782 0.00000
C98 C 0.56299 0.84881 0.37324 0.00000
C99 C 0.52128 0.77656 0.34390 0.00000
C100 C 0.50469 0.92213 0.33580 0.00000
O101 O 0.54258 0.78379 0.33022 0.00000
O102 O 0.50069 0.79180 0.34859 0.00000
O103 O 0.47840 0.79033 0.29533 0.00000
O104 O 0.19281 0.51997 0.28145 0.00000
O105 O 0.17182 0.44980 0.34815 0.00000
O106 O 0.15934 0.57052 0.29569 0.00000
O107 O 0.14128 0.53991 0.38239 0.00000
O108 O 0.09387 0.50491 0.35591 0.00000
O109 O 0.15135 0.51001 0.32408 0.00000
Zn110 Zn 0.17692 0.54206 0.31887 0.00000
Zn111 Zn 0.12387 0.51099 0.29612 0.00000
Zn112 Zn 0.17834 0.47852 0.32037 0.00000
Zn113 Zn 0.13547 0.50794 0.35902 0.00000
O114 O 0.16346 0.56607 0.35173 0.00000
O115 O 0.12203 0.47931 0.27149 0.00000
O116 O 0.12282 0.54736 0.27737 0.00000
O117 O 0.14378 0.47212 0.37735 0.00000
O118 O 0.15253 0.45390 0.29518 0.00000
O119 O 0.08570 0.50881 0.31229 0.00000
C120 C 0.20963 0.50018 0.28006 0.00000
C121 C 0.13690 0.56957 0.28203 0.00000
C122 C 0.13438 0.45669 0.27758 0.00000
C123 C 0.15565 0.45049 0.36782 0.00000
C124 C 0.15120 0.56299 0.37324 0.00000
C125 C 0.22344 0.52128 0.34391 0.00000
C126 C 0.07787 0.50469 0.33581 0.00000
O127 O 0.21621 0.54258 0.33022 0.00000
O128 O 0.20821 0.50069 0.34860 0.00000
O129 O 0.20967 0.47841 0.29534 0.00000
O130 O 0.72941 0.47250 0.83108 0.00000
O131 O 0.66038 0.54401 0.85380 0.00000
O132 O 0.71547 0.42260 0.86373 0.00000
O133 O 0.62430 0.45485 0.88540 0.00000
O134 O 0.65598 0.48999 0.92755 0.00000
O135 O 0.68648 0.48366 0.87215 0.00000
Zn136 Zn 0.69003 0.45123 0.84840 0.00000
Zn137 Zn 0.71802 0.48256 0.89608 0.00000
Zn138 Zn 0.68928 0.51476 0.84640 0.00000
Zn139 Zn 0.65010 0.48650 0.88902 0.00000
O140 O 0.65536 0.42792 0.86321 0.00000
O141 O 0.74493 0.51385 0.89593 0.00000
O142 O 0.73759 0.44590 0.89638 0.00000
O143 O 0.63053 0.52252 0.88194 0.00000
O144 O 0.71812 0.53928 0.86863 0.00000
O145 O 0.70306 0.48547 0.93259 0.00000
C146 C 0.73017 0.49207 0.81509 0.00000
C147 C 0.73143 0.42360 0.88381 0.00000
C148 C 0.73800 0.53641 0.88452 0.00000
C149 C 0.64032 0.54384 0.87005 0.00000
C150 C 0.63314 0.43150 0.87589 0.00000
C151 C 0.66076 0.47185 0.80631 0.00000
C152 C 0.67845 0.49007 0.94125 0.00000
O153 O 0.67552 0.45042 0.81248 0.00000
O154 O 0.65697 0.49270 0.82054 0.00000
O155 O 0.71415 0.51408 0.81570 0.00000
O156 O 0.72941 0.52750 0.16892 0.00000
O157 O 0.66038 0.45599 0.14620 0.00000
O158 O 0.71547 0.57740 0.13627 0.00000
O159 O 0.62430 0.54515 0.11460 0.00000
O160 O 0.65598 0.51001 0.07245 0.00000
O161 O 0.68648 0.51634 0.12785 0.00000
Zn162 Zn 0.69003 0.54878 0.15160 0.00000
Zn163 Zn 0.71802 0.51744 0.10392 0.00000
Zn164 Zn 0.68928 0.48524 0.15360 0.00000
Zn165 Zn 0.65010 0.51350 0.11098 0.00000
O166 O 0.65536 0.57208 0.13679 0.00000
O167 O 0.74493 0.48615 0.10407 0.00000
O168 O 0.73759 0.55410 0.10362 0.00000
O169 O 0.63053 0.47748 0.11806 0.00000
O170 O 0.71812 0.46072 0.13137 0.00000
O171 O 0.70306 0.51453 0.06740 0.00000
C172 C 0.73017 0.50794 0.18491 0.00000
C173 C 0.73143 0.57640 0.11619 0.00000
C174 C 0.73800 0.46359 0.11548 0.00000
C175 C 0.64032 0.45616 0.12995 0.00000
C176 C 0.63314 0.56850 0.12411 0.00000
C177 C 0.66076 0.52815 0.19368 0.00000
C178 C 0.67845 0.50993 0.05875 0.00000
O179 O 0.67552 0.54958 0.18751 0.00000
O180 O 0.65697 0.50730 0.17946 0.00000
O181 O 0.71415 0.48592 0.18430 0.00000
O182 O 0.48003 0.80719 0.71855 0.00000
O183 O 0.55020 0.82819 0.65185 0.00000
O184 O 0.42948 0.84066 0.70431 0.00000
O185 O 0.46009 0.85873 0.61761 0.00000
O186 O 0.49509 0.90614 0.64409 0.00000
O187 O 0.48999 0.84866 0.67592 0.00000
Zn188 Zn 0.45794 0.82308 0.68113 0.00000
Zn189 Zn 0.48901 0.87613 0.70388 0.00000
Zn190 Zn 0.52148 0.82167 0.67963 0.00000
Zn191 Zn 0.49206 0.86454 0.64098 0.00000
O192 O 0.43393 0.83654 0.64827 0.00000
O193 O 0.52069 0.87798 0.72851 0.00000
O194 O 0.45264 0.87719 0.72262 0.00000
O195 O 0.52788 0.85623 0.62265 0.00000
O196 O 0.54610 0.84748 0.70482 0.00000
O197 O 0.49120 0.91431 0.68771 0.00000
C198 C 0.49983 0.79038 0.71994 0.00000
C199 C 0.43043 0.86310 0.71796 0.00000
C200 C 0.54331 0.86563 0.72242 0.00000
C201 C 0.54951 0.84435 0.63218 0.00000
C202 C 0.43701 0.84881 0.62675 0.00000
C203 C 0.47872 0.77657 0.65609 0.00000
C204 C 0.49531 0.92214 0.66419 0.00000
O205 O 0.45742 0.78379 0.66978 0.00000
O206 O 0.49931 0.79180 0.65140 0.00000
O207 O 0.52159 0.79033 0.70466 0.00000
O208 O 0.30342 0.93296 0.47870 0.00000
O209 O 0.35018 0.87444 0.54378 0.00000
O210 O 0.29620 0.89692 0.43149 0.00000
O211 O 0.36187 0.82852 0.45950 0.00000
O212 O 0.31160 0.80609 0.49247 0.00000
O213 O 0.31687 0.87272 0.48779 0.00000
Zn214 Zn 0.32684 0.89689 0.45786 0.00000
Zn215 Zn 0.27655 0.86756 0.48714 0.00000
Zn216 Zn 0.32942 0.89700 0.51715 0.00000
Zn217 Zn 0.33830 0.83815 0.48952 0.00000
O218 O 0.34765 0.86564 0.43524 0.00000
O219 O 0.25416 0.88121 0.51689 0.00000
O220 O 0.25927 0.87836 0.45333 0.00000
O221 O 0.35938 0.83354 0.52281 0.00000
O222 O 0.29267 0.89143 0.54037 0.00000
O223 O 0.26868 0.82638 0.48915 0.00000
C224 C 0.31204 0.94751 0.49715 0.00000
C225 C 0.27132 0.88703 0.43253 0.00000
C226 C 0.26677 0.88749 0.53793 0.00000
C227 C 0.35806 0.84908 0.54303 0.00000
C228 C 0.35942 0.84232 0.43799 0.00000
C229 C 0.37573 0.91937 0.47697 0.00000
C230 C 0.28478 0.80544 0.49285 0.00000
O231 O 0.35943 0.92197 0.45720 0.00000
O232 O 0.37119 0.90399 0.49619 0.00000
O233 O 0.32560 0.93806 0.51736 0.00000
O234 O 0.06704 0.69658 0.52130 0.00000
O235 O 0.12556 0.64982 0.45623 0.00000
O236 O 0.10308 0.70380 0.56851 0.00000
O237 O 0.17148 0.63813 0.54050 0.00000
O238 O 0.19391 0.68840 0.50753 0.00000
O239 O 0.12728 0.68313 0.51221 0.00000
Zn240 Zn 0.10310 0.67316 0.54214 0.00000
Zn241 Zn 0.13243 0.72345 0.51286 0.00000
Zn242 Zn 0.10300 0.67058 0.48285 0.00000
Zn243 Zn 0.16184 0.66170 0.51048 0.00000
O244 O 0.13435 0.65235 0.56476 0.00000
O245 O 0.11878 0.74584 0.48311 0.00000
O246 O 0.12163 0.74073 0.54667 0.00000
O247 O 0.16646 0.64062 0.47720 0.00000
O248 O 0.10857 0.70733 0.45963 0.00000
O249 O 0.17361 0.73132 0.51085 0.00000
C250 C 0.05249 0.68796 0.50285 0.00000
C251 C 0.11297 0.72868 0.56747 0.00000
C252 C 0.11250 0.73323 0.46207 0.00000
C253 C 0.15092 0.64194 0.45697 0.00000
C254 C 0.15768 0.64058 0.56201 0.00000
C255 C 0.08062 0.62427 0.52303 0.00000
C256 C 0.19455 0.71522 0.50715 0.00000
O257 O 0.07803 0.64057 0.54280 0.00000
O258 O 0.09600 0.62881 0.50381 0.00000
O259 O 0.06194 0.67440 0.48264 0.00000
O260 O 0.69658 0.06704 0.47870 0.00000
O261 O 0.64982 0.12556 0.54377 0.00000
O262 O 0.70380 0.10308 0.43149 0.00000
O263 O 0.63813 0.17148 0.45949 0.00000
O264 O 0.68840 0.19391 0.49246 0.00000
O265 O 0.68313 0.12728 0.48779 0.00000
Zn266 Zn 0.67316 0.10311 0.45785 0.00000
Zn267 Zn 0.72345 0.13244 0.48714 0.00000
Zn268 Zn 0.67058 0.10300 0.51715 0.00000
Zn269 Zn 0.66170 0.16185 0.48952 0.00000
O270 O 0.65235 0.13436 0.43524 0.00000
O271 O 0.74584 0.11879 0.51689 0.00000
O272 O 0.74073 0.12164 0.45333 0.00000
O273 O 0.64062 0.16646 0.52280 0.00000
O274 O 0.70733 0.10857 0.54037 0.00000
O275 O 0.73132 0.17362 0.48915 0.00000
C276 C 0.68796 0.05249 0.49715 0.00000
C277 C 0.72868 0.11297 0.43253 0.00000
C278 C 0.73323 0.11251 0.53793 0.00000
C279 C 0.64194 0.15092 0.54303 0.00000
C280 C 0.64058 0.15768 0.43799 0.00000
C281 C 0.62427 0.08063 0.47697 0.00000
C282 C 0.71522 0.19456 0.49284 0.00000
O283 O 0.64057 0.07803 0.45720 0.00000
O284 O 0.62881 0.09601 0.49619 0.00000
O285 O 0.67440 0.06194 0.51736 0.00000
O286 O 0.93296 0.69658 0.47870 0.00000
O287 O 0.87444 0.64982 0.54377 0.00000
O288 O 0.89692 0.70380 0.43149 0.00000
O289 O 0.82852 0.63813 0.45950 0.00000
O290 O 0.80609 0.68840 0.49246 0.00000
O291 O 0.87272 0.68313 0.48779 0.00000
Zn292 Zn 0.89690 0.67316 0.45786 0.00000
Zn293 Zn 0.86757 0.72345 0.48714 0.00000
Zn294 Zn 0.89700 0.67058 0.51715 0.00000
Zn295 Zn 0.83815 0.66170 0.48952 0.00000
O296 O 0.86565 0.65235 0.43524 0.00000
O297 O 0.88122 0.74584 0.51689 0.00000
O298 O 0.87837 0.74073 0.45333 0.00000
O299 O 0.83354 0.64062 0.52280 0.00000
O300 O 0.89143 0.70733 0.54037 0.00000
O301 O 0.82639 0.73132 0.48915 0.00000
C302 C 0.94751 0.68796 0.49715 0.00000
C303 C 0.88703 0.72868 0.43253 0.00000
C304 C 0.88749 0.73323 0.53793 0.00000
C305 C 0.84908 0.64194 0.54303 0.00000
C306 C 0.84232 0.64058 0.43799 0.00000
C307 C 0.91938 0.62427 0.47697 0.00000
C308 C 0.80545 0.71522 0.49284 0.00000
O309 O 0.92197 0.64057 0.45720 0.00000
O310 O 0.90400 0.62881 0.49619 0.00000
O311 O 0.93806 0.67440 0.51736 0.00000
O312 O 0.06704 0.30342 0.47870 0.00000
O313 O 0.12556 0.35017 0.54377 0.00000
O314 O 0.10308 0.29620 0.43149 0.00000
O315 O 0.17148 0.36187 0.45950 0.00000
O316 O 0.19391 0.31160 0.49246 0.00000
O317 O 0.12728 0.31687 0.48779 0.00000
Zn318 Zn 0.10310 0.32684 0.45785 0.00000
Zn319 Zn 0.13243 0.27655 0.48714 0.00000
Zn320 Zn 0.10300 0.32942 0.51715 0.00000
Zn321 Zn 0.16184 0.33830 0.48952 0.00000
O322 O 0.13435 0.34765 0.43524 0.00000
O323 O 0.11878 0.25416 0.51689 0.00000
O324 O 0.12163 0.25927 0.45333 0.00000
O325 O 0.16646 0.35938 0.52280 0.00000
O326 O 0.10857 0.29267 0.54037 0.00000
O327 O 0.17361 0.26868 0.48915 0.00000
C328 C 0.05249 0.31204 0.49715 0.00000
C329 C 0.11297 0.27132 0.43253 0.00000
C330 C 0.11250 0.26677 0.53793 0.00000
C331 C 0.15092 0.35805 0.54303 0.00000
C332 C 0.15768 0.35942 0.43799 0.00000
C333 C 0.08062 0.37573 0.47697 0.00000
C334 C 0.19455 0.28478 0.49284 0.00000
O335 O 0.07803 0.35943 0.45720 0.00000
O336 O 0.09600 0.37119 0.49619 0.00000
O337 O 0.06194 0.32560 0.51736 0.00000
O338 O 0.30342 0.06704 0.52130 0.00000
O339 O 0.35018 0.12556 0.45623 0.00000
O340 O 0.29620 0.10308 0.56851 0.00000
O341 O 0.36187 0.17148 0.54050 0.00000
O342 O 0.31160 0.19391 0.50753 0.00000
O343 O 0.31687 0.12728 0.51221 0.00000
Zn344 Zn 0.32684 0.10311 0.54214 0.00000
Zn345 Zn 0.27655 0.13244 0.51286 0.00000
Zn346 Zn 0.32942 0.10300 0.48285 0.00000
Zn347 Zn 0.33830 0.16185 0.51048 0.00000
O348 O 0.34765 0.13436 0.56476 0.00000
O349 O 0.25416 0.11879 0.48311 0.00000
O350 O 0.25927 0.12164 0.54667 0.00000
O351 O 0.35938 0.16646 0.47719 0.00000
O352 O 0.29267 0.10857 0.45963 0.00000
O353 O 0.26868 0.17362 0.51085 0.00000
C354 C 0.31204 0.05249 0.50285 0.00000
C355 C 0.27132 0.11297 0.56747 0.00000
C356 C 0.26677 0.11251 0.46207 0.00000
C357 C 0.35806 0.15092 0.45697 0.00000
C358 C 0.35942 0.15768 0.56201 0.00000
C359 C 0.37573 0.08063 0.52303 0.00000
C360 C 0.28478 0.19456 0.50715 0.00000
O361 O 0.35943 0.07803 0.54280 0.00000
O362 O 0.37119 0.09601 0.50381 0.00000
O363 O 0.32560 0.06194 0.48264 0.00000
O364 O 0.93296 0.30342 0.52130 0.00000
O365 O 0.87444 0.35018 0.45623 0.00000
O366 O 0.89692 0.29620 0.56851 0.00000
O367 O 0.82852 0.36187 0.54050 0.00000
O368 O 0.80609 0.31160 0.50753 0.00000
O369 O 0.87272 0.31687 0.51221 0.00000
Zn370 Zn 0.89690 0.32684 0.54214 0.00000
Zn371 Zn 0.86757 0.27655 0.51286 0.00000
Zn372 Zn 0.89700 0.32942 0.48285 0.00000
Zn373 Zn 0.83815 0.33830 0.51048 0.00000
O374 O 0.86565 0.34765 0.56476 0.00000
O375 O 0.88122 0.25416 0.48311 0.00000
O376 O 0.87837 0.25928 0.54667 0.00000
O377 O 0.83354 0.35938 0.47720 0.00000
O378 O 0.89143 0.29267 0.45963 0.00000
O379 O 0.82639 0.26868 0.51085 0.00000
C380 C 0.94751 0.31204 0.50285 0.00000
C381 C 0.88703 0.27132 0.56747 0.00000
C382 C 0.88750 0.26677 0.46207 0.00000
C383 C 0.84908 0.35806 0.45697 0.00000
C384 C 0.84232 0.35942 0.56201 0.00000
C385 C 0.91938 0.37573 0.52303 0.00000
C386 C 0.80545 0.28478 0.50715 0.00000
O387 O 0.92197 0.35943 0.54280 0.00000
O388 O 0.90400 0.37119 0.50381 0.00000
O389 O 0.93806 0.32560 0.48264 0.00000
O390 O 0.52750 0.72941 0.83106 0.00000
O391 O 0.45599 0.66038 0.85378 0.00000
O392 O 0.57740 0.71547 0.86372 0.00000
O393 O 0.54515 0.62430 0.88539 0.00000
O394 O 0.51001 0.65598 0.92754 0.00000
O395 O 0.51634 0.68648 0.87214 0.00000
Zn396 Zn 0.54878 0.69003 0.84839 0.00000
Zn397 Zn 0.51744 0.71802 0.89606 0.00000
Zn398 Zn 0.48524 0.68928 0.84638 0.00000
Zn399 Zn 0.51350 0.65010 0.88901 0.00000
O400 O 0.57208 0.65536 0.86320 0.00000
O401 O 0.48615 0.74493 0.89592 0.00000
O402 O 0.55410 0.73759 0.89636 0.00000
O403 O 0.47748 0.63053 0.88193 0.00000
O404 O 0.46073 0.71812 0.86862 0.00000
O405 O 0.51453 0.70306 0.93258 0.00000
C406 C 0.50794 0.73017 0.81507 0.00000
C407 C 0.57640 0.73143 0.88379 0.00000
C408 C 0.46359 0.73800 0.88450 0.00000
C409 C 0.45617 0.64032 0.87003 0.00000
C410 C 0.56850 0.63314 0.87588 0.00000
C411 C 0.52815 0.66076 0.80630 0.00000
C412 C 0.50994 0.67845 0.94124 0.00000
O413 O 0.54959 0.67552 0.81247 0.00000
O414 O 0.50730 0.65697 0.82052 0.00000
O415 O 0.48592 0.71415 0.81568 0.00000
O416 O 0.47250 0.72941 0.16894 0.00000
O417 O 0.54401 0.66039 0.14622 0.00000
O418 O 0.42260 0.71547 0.13628 0.00000
O419 O 0.45485 0.62430 0.11461 0.00000
O420 O 0.48999 0.65599 0.07246 0.00000
O421 O 0.48366 0.68648 0.12786 0.00000
Zn422 Zn 0.45122 0.69004 0.15161 0.00000
Zn423 Zn 0.48256 0.71802 0.10394 0.00000
Zn424 Zn 0.51476 0.68928 0.15362 0.00000
Zn425 Zn 0.48650 0.65011 0.11099 0.00000
O426 O 0.42792 0.65536 0.13681 0.00000
O427 O 0.51385 0.74493 0.10408 0.00000
O428 O 0.44590 0.73759 0.10364 0.00000
O429 O 0.52252 0.63054 0.11807 0.00000
O430 O 0.53927 0.71813 0.13138 0.00000
O431 O 0.48547 0.70307 0.06742 0.00000
C432 C 0.49206 0.73017 0.18493 0.00000
C433 C 0.42360 0.73144 0.11621 0.00000
C434 C 0.53641 0.73800 0.11550 0.00000
C435 C 0.54384 0.64032 0.12997 0.00000
C436 C 0.43150 0.63314 0.12412 0.00000
C437 C 0.47185 0.66076 0.19370 0.00000
C438 C 0.49006 0.67845 0.05877 0.00000
O439 O 0.45042 0.67552 0.18753 0.00000
O440 O 0.49270 0.65697 0.17948 0.00000
O441 O 0.51408 0.71415 0.18432 0.00000
O442 O 0.27059 0.47250 0.16892 0.00000
O443 O 0.33962 0.54401 0.14621 0.00000
O444 O 0.28453 0.42260 0.13627 0.00000
O445 O 0.37570 0.45485 0.11460 0.00000
O446 O 0.34402 0.48999 0.07245 0.00000
O447 O 0.31352 0.48366 0.12785 0.00000
Zn448 Zn 0.30997 0.45122 0.15160 0.00000
Zn449 Zn 0.28198 0.48256 0.10392 0.00000
Zn450 Zn 0.31072 0.51476 0.15360 0.00000
Zn451 Zn 0.34990 0.48650 0.11098 0.00000
O452 O 0.34464 0.42792 0.13679 0.00000
O453 O 0.25507 0.51385 0.10407 0.00000
O454 O 0.26241 0.44590 0.10363 0.00000
O455 O 0.36947 0.52252 0.11806 0.00000
O456 O 0.28188 0.53928 0.13137 0.00000
O457 O 0.29694 0.48547 0.06741 0.00000
C458 C 0.26983 0.49206 0.18491 0.00000
C459 C 0.26857 0.42360 0.11620 0.00000
C460 C 0.26200 0.53641 0.11548 0.00000
C461 C 0.35968 0.54384 0.12995 0.00000
C462 C 0.36686 0.43150 0.12411 0.00000
C463 C 0.33924 0.47185 0.19369 0.00000
C464 C 0.32155 0.49007 0.05875 0.00000
O465 O 0.32448 0.45042 0.18752 0.00000
O466 O 0.34303 0.49270 0.17947 0.00000
O467 O 0.28585 0.51408 0.18430 0.00000
O468 O 0.52750 0.27059 0.16894 0.00000
O469 O 0.45599 0.33961 0.14622 0.00000
O470 O 0.57740 0.28453 0.13628 0.00000
O471 O 0.54515 0.37570 0.11461 0.00000
O472 O 0.51001 0.34401 0.07246 0.00000
O473 O 0.51634 0.31352 0.12786 0.00000
Zn474 Zn 0.54878 0.30996 0.15161 0.00000
Zn475 Zn 0.51744 0.28198 0.10394 0.00000
Zn476 Zn 0.48524 0.31072 0.15362 0.00000
Zn477 Zn 0.51350 0.34989 0.11100 0.00000
O478 O 0.57208 0.34464 0.13681 0.00000
O479 O 0.48615 0.25507 0.10408 0.00000
O480 O 0.55410 0.26241 0.10364 0.00000
O481 O 0.47748 0.36946 0.11807 0.00000
O482 O 0.46073 0.28187 0.13138 0.00000
O483 O 0.51453 0.29693 0.06742 0.00000
C484 C 0.50794 0.26983 0.18493 0.00000
C485 C 0.57640 0.26856 0.11621 0.00000
C486 C 0.46359 0.26200 0.11550 0.00000
C487 C 0.45617 0.35968 0.12997 0.00000
C488 C 0.56850 0.36686 0.12412 0.00000
C489 C 0.52815 0.33924 0.19370 0.00000
C490 C 0.50994 0.32155 0.05877 0.00000
O491 O 0.54959 0.32448 0.18753 0.00000
O492 O 0.50730 0.34303 0.17948 0.00000
O493 O 0.48592 0.28585 0.18432 0.00000
O494 O 0.27059 0.52750 0.83108 0.00000
O495 O 0.33961 0.45599 0.85379 0.00000
O496 O 0.28453 0.57740 0.86373 0.00000
O497 O 0.37570 0.54515 0.88540 0.00000
O498 O 0.34402 0.51001 0.92755 0.00000
O499 O 0.31352 0.51634 0.87215 0.00000
Zn500 Zn 0.30996 0.54878 0.84840 0.00000
Zn501 Zn 0.28198 0.51744 0.89607 0.00000
Zn502 Zn 0.31072 0.48524 0.84639 0.00000
Zn503 Zn 0.34990 0.51350 0.88902 0.00000
O504 O 0.34464 0.57208 0.86320 0.00000
O505 O 0.25507 0.48615 0.89593 0.00000
O506 O 0.26241 0.55410 0.89637 0.00000
O507 O 0.36947 0.47748 0.88194 0.00000
O508 O 0.28187 0.46073 0.86863 0.00000
O509 O 0.29694 0.51453 0.93259 0.00000
C510 C 0.26983 0.50794 0.81508 0.00000
C511 C 0.26857 0.57640 0.88380 0.00000
C512 C 0.26200 0.46359 0.88451 0.00000
C513 C 0.35968 0.45616 0.87004 0.00000
C514 C 0.36686 0.56850 0.87589 0.00000
C515 C 0.33924 0.52815 0.80631 0.00000
C516 C 0.32155 0.50993 0.94125 0.00000
O517 O 0.32448 0.54958 0.81248 0.00000
O518 O 0.34303 0.50730 0.82053 0.00000
O519 O 0.28584 0.48592 0.81569 0.00000
O520 O 0.47250 0.27059 0.83106 0.00000
O521 O 0.54401 0.33961 0.85378 0.00000
O522 O 0.42260 0.28453 0.86372 0.00000
O523 O 0.45485 0.37570 0.88539 0.00000
O524 O 0.48999 0.34401 0.92754 0.00000
O525 O 0.48366 0.31352 0.87214 0.00000
Zn526 Zn 0.45122 0.30996 0.84839 0.00000
Zn527 Zn 0.48256 0.28198 0.89606 0.00000
Zn528 Zn 0.51476 0.31072 0.84638 0.00000
Zn529 Zn 0.48650 0.34989 0.88900 0.00000
O530 O 0.42792 0.34464 0.86319 0.00000
O531 O 0.51385 0.25507 0.89592 0.00000
O532 O 0.44590 0.26241 0.89636 0.00000
O533 O 0.52252 0.36946 0.88193 0.00000
O534 O 0.53927 0.28187 0.86862 0.00000
O535 O 0.48547 0.29693 0.93258 0.00000
C536 C 0.49206 0.26982 0.81507 0.00000
C537 C 0.42360 0.26856 0.88379 0.00000
C538 C 0.53641 0.26200 0.88450 0.00000
C539 C 0.54384 0.35968 0.87003 0.00000
C540 C 0.43150 0.36686 0.87588 0.00000
C541 C 0.47185 0.33923 0.80630 0.00000
C542 C 0.49006 0.32155 0.94123 0.00000
O543 O 0.45042 0.32448 0.81247 0.00000
O544 O 0.49270 0.34303 0.82052 0.00000
O545 O 0.51408 0.28584 0.81568 0.00000
O546 O 0.69658 0.93296 0.52130 0.00000
O547 O 0.64982 0.87444 0.45623 0.00000
O548 O 0.70380 0.89692 0.56851 0.00000
O549 O 0.63813 0.82852 0.54051 0.00000
O550 O 0.68840 0.80609 0.50754 0.00000
O551 O 0.68313 0.87272 0.51221 0.00000
Zn552 Zn 0.67316 0.89689 0.54215 0.00000
Zn553 Zn 0.72345 0.86756 0.51286 0.00000
Zn554 Zn 0.67058 0.89700 0.48285 0.00000
Zn555 Zn 0.66170 0.83815 0.51048 0.00000
O556 O 0.65235 0.86564 0.56476 0.00000
O557 O 0.74584 0.88121 0.48311 0.00000
O558 O 0.74072 0.87836 0.54667 0.00000
O559 O 0.64062 0.83354 0.47720 0.00000
O560 O 0.70733 0.89143 0.45963 0.00000
O561 O 0.73132 0.82638 0.51085 0.00000
C562 C 0.68796 0.94751 0.50285 0.00000
C563 C 0.72868 0.88703 0.56747 0.00000
C564 C 0.73323 0.88749 0.46208 0.00000
C565 C 0.64194 0.84908 0.45697 0.00000
C566 C 0.64058 0.84232 0.56201 0.00000
C567 C 0.62427 0.91937 0.52303 0.00000
C568 C 0.71522 0.80544 0.50716 0.00000
O569 O 0.64057 0.92197 0.54280 0.00000
O570 O 0.62881 0.90399 0.50381 0.00000
O571 O 0.67440 0.93806 0.48264 0.00000
O572 O 0.19281 0.48003 0.71855 0.00000
O573 O 0.17182 0.55020 0.65185 0.00000
O574 O 0.15934 0.42948 0.70431 0.00000
O575 O 0.14128 0.46009 0.61761 0.00000
O576 O 0.09387 0.49509 0.64409 0.00000
O577 O 0.15135 0.48999 0.67592 0.00000
Zn578 Zn 0.17692 0.45794 0.68113 0.00000
Zn579 Zn 0.12388 0.48901 0.70388 0.00000
Zn580 Zn 0.17834 0.52148 0.67963 0.00000
Zn581 Zn 0.13547 0.49206 0.64098 0.00000
O582 O 0.16347 0.43393 0.64827 0.00000
O583 O 0.12203 0.52069 0.72851 0.00000
O584 O 0.12282 0.45264 0.72263 0.00000
O585 O 0.14378 0.52788 0.62266 0.00000
O586 O 0.15253 0.54610 0.70482 0.00000
O587 O 0.08570 0.49119 0.68772 0.00000
C588 C 0.20963 0.49983 0.71994 0.00000
C589 C 0.13690 0.43043 0.71797 0.00000
C590 C 0.13438 0.54331 0.72242 0.00000
C591 C 0.15565 0.54951 0.63218 0.00000
C592 C 0.15120 0.43701 0.62676 0.00000
C593 C 0.22344 0.47872 0.65610 0.00000
C594 C 0.07787 0.49531 0.66419 0.00000
O595 O 0.21621 0.45742 0.66978 0.00000
O596 O 0.20821 0.49931 0.65141 0.00000
O597 O 0.20968 0.52159 0.70467 0.00000
O598 O 0.51997 0.19281 0.71855 0.00000
O599 O 0.44980 0.17181 0.65185 0.00000
O600 O 0.57052 0.15934 0.70432 0.00000
O601 O 0.53991 0.14127 0.61761 0.00000
O602 O 0.50491 0.09387 0.64409 0.00000
O603 O 0.51001 0.15134 0.67593 0.00000
Zn604 Zn 0.54206 0.17692 0.68113 0.00000
Zn605 Zn 0.51099 0.12387 0.70389 0.00000
Zn606 Zn 0.47852 0.17834 0.67963 0.00000
Zn607 Zn 0.50794 0.13547 0.64098 0.00000
O608 O 0.56607 0.16346 0.64828 0.00000
O609 O 0.47931 0.12202 0.72852 0.00000
O610 O 0.54736 0.12282 0.72263 0.00000
O611 O 0.47212 0.14378 0.62266 0.00000
O612 O 0.45390 0.15252 0.70482 0.00000
O613 O 0.50880 0.08569 0.68772 0.00000
C614 C 0.50017 0.20962 0.71995 0.00000
C615 C 0.56957 0.13690 0.71797 0.00000
C616 C 0.45669 0.13437 0.72243 0.00000
C617 C 0.45049 0.15565 0.63218 0.00000
C618 C 0.56299 0.15119 0.62676 0.00000
C619 C 0.52128 0.22344 0.65610 0.00000
C620 C 0.50469 0.07787 0.66420 0.00000
O621 O 0.54258 0.21621 0.66978 0.00000
O622 O 0.50069 0.20820 0.65141 0.00000
O623 O 0.47840 0.20967 0.70467 0.00000
C624 C 0.83474 0.42843 0.59386 0.00000
C625 C 0.83316 0.40680 0.57540 0.00000
C626 C 0.84081 0.37968 0.58160 0.00000
C627 C 0.85113 0.37528 0.60688 0.00000
C628 C 0.85314 0.39687 0.62502 0.00000
C629 C 0.84485 0.42395 0.61872 0.00000
F630 F 0.82560 0.45442 0.58694 0.00000
F631 F 0.82234 0.41270 0.55167 0.00000
F632 F 0.85991 0.34929 0.61419 0.00000
F633 F 0.86363 0.39130 0.64934 0.00000
C634 C 0.62512 0.15657 0.39122 0.00000
C635 C 0.60312 0.14976 0.37424 0.00000
C636 C 0.57551 0.15069 0.38234 0.00000
C637 C 0.57088 0.15774 0.40855 0.00000
C638 C 0.59277 0.16401 0.42549 0.00000
C639 C 0.62042 0.16355 0.41697 0.00000
F640 F 0.65176 0.15659 0.38171 0.00000
F641 F 0.60937 0.14385 0.34912 0.00000
F642 F 0.54429 0.15825 0.41820 0.00000
F643 F 0.58691 0.17051 0.45094 0.00000
C644 C 0.85650 0.57455 0.40706 0.00000
C645 C 0.85541 0.59788 0.42364 0.00000
C646 C 0.84120 0.62195 0.41659 0.00000
C647 C 0.82896 0.62208 0.39173 0.00000
C648 C 0.83049 0.59909 0.37512 0.00000
C649 C 0.84436 0.57479 0.38264 0.00000
F650 F 0.86966 0.55097 0.41565 0.00000
F651 F 0.86719 0.59577 0.44752 0.00000
F652 F 0.81534 0.64537 0.38306 0.00000
F653 F 0.81831 0.60058 0.35097 0.00000
C654 C 0.42496 0.82578 0.40034 0.00000
C655 C 0.40400 0.82313 0.41935 0.00000
C656 C 0.38033 0.83980 0.41895 0.00000
C657 C 0.37900 0.86004 0.39920 0.00000
C658 C 0.40005 0.86297 0.38062 0.00000
C659 C 0.42349 0.84570 0.38092 0.00000
F660 F 0.44710 0.80781 0.40105 0.00000
F661 F 0.40660 0.80263 0.43733 0.00000
F662 F 0.35674 0.87785 0.39801 0.00000
F663 F 0.39766 0.88331 0.36195 0.00000
C664 C 0.16861 0.40219 0.37516 0.00000
C665 C 0.17525 0.38061 0.39266 0.00000
C666 C 0.16406 0.37980 0.41757 0.00000
C667 C 0.14667 0.40216 0.42461 0.00000
C668 C 0.14049 0.42382 0.40739 0.00000
C669 C 0.15144 0.42410 0.38220 0.00000
F670 F 0.17923 0.40107 0.35047 0.00000
F671 F 0.19164 0.35951 0.38408 0.00000
F672 F 0.13554 0.40330 0.44911 0.00000
F673 F 0.12356 0.44521 0.41550 0.00000
C674 C 0.61488 0.57772 0.85253 0.00000
C675 C 0.59413 0.59847 0.85313 0.00000
C676 C 0.58694 0.61188 0.87612 0.00000
C677 C 0.60070 0.60289 0.89877 0.00000
C678 C 0.62093 0.58195 0.89822 0.00000
C679 C 0.62839 0.56901 0.87489 0.00000
F680 F 0.62198 0.56627 0.82907 0.00000
F681 F 0.58238 0.60636 0.83031 0.00000
F682 F 0.59412 0.61450 0.92231 0.00000
F683 F 0.63346 0.57392 0.92105 0.00000
C684 C 0.62087 0.41944 0.10274 0.00000
C685 C 0.60468 0.39499 0.10161 0.00000
C686 C 0.59130 0.38457 0.12351 0.00000
C687 C 0.59567 0.39912 0.14691 0.00000
C688 C 0.61214 0.42309 0.14809 0.00000
C689 C 0.62503 0.43370 0.12582 0.00000
F690 F 0.63239 0.42941 0.08022 0.00000
F691 F 0.60100 0.38263 0.07815 0.00000
F692 F 0.58389 0.38963 0.16949 0.00000
F693 F 0.61581 0.43624 0.17158 0.00000
C694 C 0.59020 0.86800 0.41143 0.00000
C695 C 0.60825 0.86507 0.43285 0.00000
C696 C 0.62625 0.84251 0.43497 0.00000
C697 C 0.62468 0.82236 0.41516 0.00000
C698 C 0.60640 0.82505 0.39415 0.00000
C699 C 0.58880 0.84813 0.39196 0.00000
F700 F 0.57396 0.89140 0.40982 0.00000
F701 F 0.60893 0.88579 0.45077 0.00000
F702 F 0.64114 0.79909 0.41630 0.00000
F703 F 0.60566 0.80453 0.37552 0.00000
C704 C 0.16024 0.58013 0.41770 0.00000
C705 C 0.16536 0.60027 0.43705 0.00000
C706 C 0.15951 0.62828 0.43296 0.00000
C707 C 0.14924 0.63549 0.40824 0.00000
C708 C 0.14464 0.61555 0.38890 0.00000
C709 C 0.15008 0.58736 0.39342 0.00000
F710 F 0.16516 0.55270 0.42337 0.00000
F711 F 0.17465 0.59145 0.46056 0.00000
F712 F 0.14380 0.66280 0.40245 0.00000
F713 F 0.13481 0.62394 0.36505 0.00000
C714 C 0.38703 0.82087 0.57441 0.00000
C715 C 0.40932 0.82303 0.59212 0.00000
C716 C 0.41502 0.84782 0.60504 0.00000
C717 C 0.39805 0.87074 0.59873 0.00000
C718 C 0.37626 0.86869 0.58082 0.00000
C719 C 0.37037 0.84349 0.56834 0.00000
F720 F 0.38164 0.79552 0.56329 0.00000
F721 F 0.42422 0.79975 0.59755 0.00000
F722 F 0.40292 0.89611 0.61005 0.00000
F723 F 0.36057 0.89190 0.57531 0.00000
C724 C 0.15369 0.59557 0.57407 0.00000
C725 C 0.15240 0.57195 0.59028 0.00000
C726 C 0.15601 0.57404 0.61702 0.00000
C727 C 0.16203 0.60074 0.62681 0.00000
C728 C 0.16379 0.62408 0.61064 0.00000
C729 C 0.15957 0.62180 0.58384 0.00000
F730 F 0.14859 0.59235 0.54805 0.00000
F731 F 0.14582 0.54710 0.57934 0.00000
F732 F 0.16671 0.60434 0.65286 0.00000
F733 F 0.16999 0.64958 0.62135 0.00000
C734 C 0.42276 0.17673 0.60270 0.00000
C735 C 0.40198 0.17991 0.58359 0.00000
C736 C 0.38051 0.16070 0.58095 0.00000
C737 C 0.38129 0.13751 0.59767 0.00000
C738 C 0.40220 0.13414 0.61631 0.00000
C739 C 0.42338 0.15389 0.61913 0.00000
F740 F 0.44257 0.19709 0.60516 0.00000
F741 F 0.40240 0.20322 0.56869 0.00000
F742 F 0.36133 0.11723 0.59570 0.00000
F743 F 0.40196 0.11090 0.63192 0.00000
C744 C 0.40792 0.13085 0.40986 0.00000
C745 C 0.38990 0.13345 0.43134 0.00000
C746 C 0.37378 0.15717 0.43503 0.00000
C747 C 0.37725 0.17873 0.41678 0.00000
C748 C 0.39552 0.17632 0.39573 0.00000
C749 C 0.41120 0.15212 0.39193 0.00000
F750 F 0.42220 0.10641 0.40661 0.00000
F751 F 0.38729 0.11142 0.44766 0.00000
F752 F 0.36275 0.20312 0.41956 0.00000
F753 F 0.39817 0.19821 0.37869 0.00000
C754 C 0.57376 0.82794 0.59775 0.00000
C755 C 0.59488 0.82564 0.57885 0.00000
C756 C 0.61983 0.84013 0.58117 0.00000
C757 C 0.62235 0.85791 0.60278 0.00000
C758 C 0.60117 0.86056 0.62127 0.00000
C759 C 0.57640 0.84544 0.61901 0.00000
F760 F 0.55024 0.81208 0.59502 0.00000
F761 F 0.59103 0.80751 0.55895 0.00000
F762 F 0.64596 0.87355 0.60598 0.00000
F763 F 0.60479 0.87847 0.64185 0.00000
C764 C 0.39385 0.60203 0.85386 0.00000
C765 C 0.41458 0.62279 0.85291 0.00000
C766 C 0.43079 0.62909 0.87452 0.00000
C767 C 0.42465 0.61441 0.89750 0.00000
C768 C 0.40375 0.59417 0.89853 0.00000
C769 C 0.38796 0.58762 0.87652 0.00000
F770 F 0.37953 0.59584 0.83157 0.00000
F771 F 0.41960 0.63546 0.82982 0.00000
F772 F 0.43914 0.62007 0.91983 0.00000
F773 F 0.39859 0.58073 0.92163 0.00000
C774 C 0.57481 0.61136 0.14655 0.00000
C775 C 0.59554 0.59062 0.14542 0.00000
C776 C 0.61187 0.58695 0.12337 0.00000
C777 C 0.60586 0.60430 0.10204 0.00000
C778 C 0.58496 0.62454 0.10304 0.00000
C779 C 0.56905 0.62841 0.12552 0.00000
F780 F 0.56036 0.61483 0.16928 0.00000
F781 F 0.60043 0.57524 0.16706 0.00000
F782 F 0.62047 0.60136 0.07933 0.00000
F783 F 0.57992 0.64069 0.08148 0.00000
C784 C 0.38981 0.57383 0.14604 0.00000
C785 C 0.41053 0.59456 0.14473 0.00000
C786 C 0.41302 0.61188 0.12320 0.00000
C787 C 0.39449 0.60688 0.10252 0.00000
C788 C 0.37427 0.58597 0.10367 0.00000
C789 C 0.37160 0.56905 0.12564 0.00000
F790 F 0.38755 0.55835 0.16831 0.00000
F791 F 0.42710 0.59844 0.16578 0.00000
F792 F 0.39623 0.62251 0.08030 0.00000
F793 F 0.35693 0.58194 0.08273 0.00000
C794 C 0.42681 0.39057 0.14566 0.00000
C795 C 0.40606 0.41128 0.14422 0.00000
C796 C 0.38811 0.41300 0.12308 0.00000
C797 C 0.39247 0.39371 0.10289 0.00000
C798 C 0.41339 0.37349 0.10414 0.00000
C799 C 0.43096 0.37161 0.12574 0.00000
F800 F 0.44294 0.38911 0.16757 0.00000
F801 F 0.40284 0.42862 0.16481 0.00000
F802 F 0.37618 0.39464 0.08104 0.00000
F803 F 0.41676 0.35538 0.08368 0.00000
C804 C 0.40752 0.40366 0.89707 0.00000
C805 C 0.39133 0.42810 0.89582 0.00000
C806 C 0.37527 0.43432 0.87410 0.00000
C807 C 0.37691 0.41550 0.85318 0.00000
C808 C 0.39337 0.39152 0.85427 0.00000
C809 C 0.40900 0.38520 0.87643 0.00000
F810 F 0.42180 0.39803 0.91951 0.00000
F811 F 0.39040 0.44477 0.91709 0.00000
F812 F 0.36236 0.42065 0.83078 0.00000
F813 F 0.39429 0.37406 0.83310 0.00000
C814 C 0.60640 0.39766 0.85394 0.00000
C815 C 0.58567 0.37691 0.85304 0.00000
C816 C 0.56921 0.37091 0.87456 0.00000
C817 C 0.57509 0.38590 0.89742 0.00000
C818 C 0.59600 0.40614 0.89842 0.00000
C819 C 0.61203 0.41238 0.87649 0.00000
F820 F 0.62097 0.40354 0.83172 0.00000
F821 F 0.58091 0.36392 0.83005 0.00000
F822 F 0.56035 0.38055 0.91967 0.00000
F823 F 0.60090 0.41990 0.92140 0.00000
C824 C 0.85689 0.38644 0.38943 0.00000
C825 C 0.85758 0.36657 0.40958 0.00000
C826 C 0.84603 0.37208 0.43382 0.00000
C827 C 0.83462 0.39881 0.43738 0.00000
C828 C 0.83439 0.41867 0.41751 0.00000
C829 C 0.84557 0.41268 0.39304 0.00000
F830 F 0.86739 0.37925 0.36560 0.00000
F831 F 0.86837 0.34108 0.40432 0.00000
F832 F 0.82362 0.40611 0.46099 0.00000
F833 F 0.82316 0.44451 0.42226 0.00000
C834 C 0.15365 0.42025 0.58132 0.00000
C835 C 0.15870 0.40070 0.56143 0.00000
C836 C 0.15947 0.37228 0.56653 0.00000
C837 C 0.15599 0.36426 0.59264 0.00000
C838 C 0.15147 0.38372 0.61242 0.00000
C839 C 0.15018 0.41221 0.60697 0.00000
F840 F 0.15177 0.44785 0.57483 0.00000
F841 F 0.16116 0.41016 0.53669 0.00000
F842 F 0.15735 0.33668 0.59933 0.00000
F843 F 0.14846 0.37459 0.63760 0.00000
C844 C 0.59075 0.13163 0.58903 0.00000
C845 C 0.60879 0.13446 0.56759 0.00000
C846 C 0.62624 0.15740 0.56501 0.00000
C847 C 0.62411 0.17799 0.58437 0.00000
C848 C 0.60584 0.17539 0.60539 0.00000
C849 C 0.58880 0.15195 0.60805 0.00000
F850 F 0.57509 0.10789 0.59112 0.00000
F851 F 0.61004 0.11332 0.55013 0.00000
F852 F 0.63999 0.20163 0.58275 0.00000
F853 F 0.60454 0.19635 0.62356 0.00000
C854 C 0.83706 0.63429 0.59193 0.00000
C855 C 0.83631 0.61381 0.61155 0.00000
C856 C 0.84496 0.58666 0.60681 0.00000
C857 C 0.85345 0.58055 0.58126 0.00000
C858 C 0.85372 0.60077 0.56170 0.00000
C859 C 0.84550 0.62816 0.56683 0.00000
F860 F 0.82956 0.66100 0.59816 0.00000
F861 F 0.82848 0.62162 0.63581 0.00000
F862 F 0.86145 0.55403 0.57487 0.00000
F863 F 0.86201 0.59345 0.53705 0.00000
C864 C 0.98526 0.50835 0.64068 0.00000
C865 C 0.01456 0.51005 0.64094 0.00000
C866 C 0.02996 0.50153 0.66240 0.00000
C867 C 0.01469 0.49218 0.68406 0.00000
C868 C 0.98560 0.49097 0.68394 0.00000
C869 C 0.97037 0.49907 0.66204 0.00000
F870 F 0.97137 0.51577 0.61848 0.00000
F871 F 0.02767 0.51868 0.61902 0.00000
F872 F 0.02836 0.48425 0.70624 0.00000
F873 F 0.97187 0.48187 0.70580 0.00000
C874 C 0.50521 0.01532 0.31601 0.00000
C875 C 0.50940 0.98627 0.31604 0.00000
C876 C 0.50408 0.97028 0.33802 0.00000
C877 C 0.49536 0.98478 0.36036 0.00000
C878 C 0.49169 0.01366 0.36042 0.00000
C879 C 0.49656 0.02945 0.33804 0.00000
F880 F 0.50950 0.02971 0.29337 0.00000
F881 F 0.51719 0.97386 0.29350 0.00000
F882 F 0.49054 0.97057 0.38302 0.00000
F883 F 0.48336 0.02665 0.38293 0.00000
C884 C 0.98468 0.50541 0.31605 0.00000
C885 C 0.01372 0.50959 0.31612 0.00000
C886 C 0.02972 0.50408 0.33805 0.00000
C887 C 0.01523 0.49516 0.36032 0.00000
C888 C 0.98635 0.49149 0.36036 0.00000
C889 C 0.97055 0.49656 0.33803 0.00000
F890 F 0.97028 0.50990 0.29345 0.00000
F891 F 0.02613 0.51759 0.29363 0.00000
F892 F 0.02944 0.49014 0.38294 0.00000
F893 F 0.97336 0.48296 0.38282 0.00000
C894 C 0.66958 0.52026 0.98267 0.00000
C895 C 0.66664 0.52468 0.00961 0.00000
C896 C 0.67437 0.50447 0.02757 0.00000
C897 C 0.68423 0.47913 0.01736 0.00000
C898 C 0.68667 0.47459 0.99061 0.00000
C899 C 0.67936 0.49529 0.97275 0.00000
F900 F 0.66289 0.54149 0.96602 0.00000
F901 F 0.65760 0.54996 0.01782 0.00000
F902 F 0.69144 0.45787 0.03381 0.00000
F903 F 0.69622 0.44929 0.98184 0.00000
C904 C 0.50663 0.98462 0.68362 0.00000
C905 C 0.51081 0.01367 0.68341 0.00000
C906 C 0.50407 0.02972 0.66182 0.00000
C907 C 0.49390 0.01529 0.63998 0.00000
C908 C 0.49024 0.98640 0.64006 0.00000
C909 C 0.49656 0.97055 0.66208 0.00000
F910 F 0.51239 0.97017 0.70594 0.00000
F911 F 0.52006 0.02602 0.70550 0.00000
F912 F 0.48762 0.02955 0.61767 0.00000
F913 F 0.48045 0.97347 0.61803 0.00000
C914 C 0.31771 0.01703 0.47991 0.00000
C915 C 0.32064 0.98792 0.47777 0.00000
C916 C 0.31281 0.97022 0.49787 0.00000
C917 C 0.30285 0.98298 0.52067 0.00000
C918 C 0.30041 0.01190 0.52293 0.00000
C919 C 0.30782 0.02946 0.50238 0.00000
F920 F 0.32450 0.03326 0.45894 0.00000
F921 F 0.32979 0.97730 0.45488 0.00000
F922 F 0.29553 0.96697 0.54163 0.00000
F923 F 0.29076 0.02312 0.54580 0.00000
C924 C 0.01507 0.71417 0.50071 0.00000
C925 C 0.98624 0.71478 0.49564 0.00000
C926 C 0.97049 0.69049 0.49498 0.00000
C927 C 0.98506 0.66537 0.49866 0.00000
C928 C 0.01375 0.66477 0.50323 0.00000
C929 C 0.02927 0.68937 0.50437 0.00000
F930 F 0.02917 0.73891 0.50238 0.00000
F931 F 0.97371 0.73993 0.49293 0.00000
F932 F 0.97113 0.64050 0.49747 0.00000
F933 F 0.02683 0.63953 0.50645 0.00000
C934 C 0.69488 0.98705 0.52326 0.00000
C935 C 0.69783 0.01615 0.52095 0.00000
C936 C 0.69281 0.02975 0.49756 0.00000
C937 C 0.68569 0.01283 0.47623 0.00000
C938 C 0.68325 0.98391 0.47845 0.00000
C939 C 0.68781 0.97053 0.50221 0.00000
F940 F 0.69879 0.97505 0.54714 0.00000
F941 F 0.70411 0.03097 0.54262 0.00000
F942 F 0.68127 0.02462 0.45233 0.00000
F943 F 0.67647 0.96849 0.45684 0.00000
C944 C 0.01461 0.33375 0.49440 0.00000
C945 C 0.98527 0.33385 0.49405 0.00000
C946 C 0.97000 0.31004 0.49982 0.00000
C947 C 0.98540 0.28574 0.50503 0.00000
C948 C 0.01452 0.28555 0.50492 0.00000
C949 C 0.02964 0.30977 0.49960 0.00000
F950 F 0.02843 0.35821 0.48981 0.00000
F951 F 0.97205 0.35833 0.48946 0.00000
F952 F 0.97184 0.26123 0.51009 0.00000
F953 F 0.02838 0.26108 0.50994 0.00000
C954 C 0.49324 0.69951 0.98471 0.00000
C955 C 0.48569 0.69902 0.01118 0.00000
C956 C 0.49248 0.67664 0.02711 0.00000
C957 C 0.50630 0.65418 0.01515 0.00000
C958 C 0.51334 0.65448 0.98878 0.00000
C959 C 0.50689 0.67736 0.97308 0.00000
F960 F 0.48716 0.72275 0.97037 0.00000
F961 F 0.47300 0.72182 0.02130 0.00000
F962 F 0.51292 0.63099 0.02938 0.00000
F963 F 0.52661 0.63180 0.97819 0.00000
C964 C 0.34277 0.48890 0.98405 0.00000
C965 C 0.34495 0.48618 0.01126 0.00000
C966 C 0.32487 0.49714 0.02781 0.00000
C967 C 0.30294 0.51191 0.01600 0.00000
C968 C 0.30107 0.51502 0.98903 0.00000
C969 C 0.32110 0.50341 0.97255 0.00000
F970 F 0.36251 0.47645 0.96874 0.00000
F971 F 0.36639 0.47103 0.02100 0.00000
F972 F 0.28280 0.52408 0.03107 0.00000
F973 F 0.27927 0.52990 0.97868 0.00000
C974 C 0.49123 0.34615 0.98707 0.00000
C975 C 0.49300 0.34604 0.01441 0.00000
C976 C 0.50201 0.32265 0.02794 0.00000
C977 C 0.50820 0.29892 0.01295 0.00000
C978 C 0.50596 0.29891 0.98585 0.00000
C979 C 0.49742 0.32275 0.97243 0.00000
F980 F 0.48354 0.37028 0.97481 0.00000
F981 F 0.48729 0.37000 0.02731 0.00000
F982 F 0.51637 0.27479 0.02494 0.00000
F983 F 0.51208 0.27499 0.97232 0.00000
C984 C 0.77247 0.47418 0.75468 0.00000
C985 C 0.76239 0.47131 0.78027 0.00000
C986 C 0.74893 0.49310 0.79287 0.00000
C987 C 0.74688 0.51833 0.77908 0.00000
C988 C 0.75733 0.52129 0.75386 0.00000
C989 C 0.77033 0.49905 0.74119 0.00000
F990 F 0.78431 0.45152 0.74287 0.00000
F991 F 0.76463 0.44607 0.79192 0.00000
F992 F 0.73467 0.54103 0.79051 0.00000
F993 F 0.75490 0.54656 0.74150 0.00000
C994 C 0.49905 0.26838 0.22962 0.00000
C995 C 0.49318 0.25567 0.25370 0.00000
C996 C 0.49823 0.22751 0.25786 0.00000
C997 C 0.50848 0.21231 0.23652 0.00000
C998 C 0.51382 0.22485 0.21250 0.00000
C999 C 0.50919 0.25330 0.20871 0.00000
F1000 F 0.49490 0.29648 0.22715 0.00000
F1001 F 0.48398 0.27198 0.27344 0.00000
F1002 F 0.51316 0.18427 0.23885 0.00000
F1003 F 0.52359 0.20882 0.19232 0.00000
C1004 C 0.75795 0.47974 0.24709 0.00000
C1005 C 0.74260 0.48297 0.22393 0.00000
C1006 C 0.74390 0.50739 0.20947 0.00000
C1007 C 0.76047 0.52894 0.21970 0.00000
C1008 C 0.77530 0.52588 0.24292 0.00000
C1009 C 0.77427 0.50101 0.25702 0.00000
F1010 F 0.75686 0.45468 0.25977 0.00000
F1011 F 0.72768 0.46091 0.21512 0.00000
F1012 F 0.76211 0.55395 0.20698 0.00000
F1013 F 0.79093 0.54780 0.25202 0.00000
C1014 C 0.48484 0.77321 0.21239 0.00000
C1015 C 0.48489 0.78559 0.23723 0.00000
C1016 C 0.49622 0.77204 0.25864 0.00000
C1017 C 0.50661 0.74502 0.25434 0.00000
C1018 C 0.50610 0.73258 0.22977 0.00000
C1019 C 0.49516 0.74664 0.20828 0.00000
F1020 F 0.47462 0.78819 0.19184 0.00000
F1021 F 0.47507 0.81196 0.23956 0.00000
F1022 F 0.51732 0.72999 0.27465 0.00000
F1023 F 0.51635 0.70603 0.22686 0.00000
C1024 C 0.24281 0.51777 0.21622 0.00000
C1025 C 0.22743 0.52065 0.23940 0.00000
C1026 C 0.22503 0.49884 0.25703 0.00000
C1027 C 0.23785 0.47358 0.25001 0.00000
C1028 C 0.25268 0.47061 0.22678 0.00000
C1029 C 0.25542 0.49287 0.20945 0.00000
F1030 F 0.24554 0.54045 0.20027 0.00000
F1031 F 0.21631 0.54592 0.24497 0.00000
F1032 F 0.23567 0.45086 0.26599 0.00000
F1033 F 0.26453 0.44531 0.22091 0.00000
C1034 C 0.51296 0.77387 0.78813 0.00000
C1035 C 0.51294 0.78651 0.76341 0.00000
C1036 C 0.50382 0.77228 0.74146 0.00000
C1037 C 0.49565 0.74441 0.74515 0.00000
C1038 C 0.49615 0.73175 0.76962 0.00000
C1039 C 0.50483 0.74645 0.79164 0.00000
F1040 F 0.52089 0.78942 0.80919 0.00000
F1041 F 0.52051 0.81366 0.76168 0.00000
F1042 F 0.48723 0.72876 0.72431 0.00000
F1043 F 0.48814 0.70437 0.77192 0.00000
C1044 C 0.25798 0.75956 0.47742 0.00000
C1045 C 0.23957 0.73701 0.48089 0.00000
C1046 C 0.22416 0.73395 0.50359 0.00000
C1047 C 0.22875 0.75391 0.52316 0.00000
C1048 C 0.24740 0.77599 0.51987 0.00000
C1049 C 0.26235 0.77917 0.49674 0.00000
F1050 F 0.27152 0.76218 0.45411 0.00000
F1051 F 0.23587 0.71909 0.46080 0.00000
F1052 F 0.21499 0.75180 0.54641 0.00000
F1053 F 0.25115 0.79468 0.53981 0.00000
C1054 C 0.75126 0.22397 0.51899 0.00000
C1055 C 0.77387 0.24247 0.52162 0.00000
C1056 C 0.77985 0.26221 0.50265 0.00000
C1057 C 0.76281 0.26197 0.48039 0.00000
C1058 C 0.74069 0.24327 0.47761 0.00000
C1059 C 0.73453 0.22389 0.49706 0.00000
F1060 F 0.74562 0.20594 0.53894 0.00000
F1061 F 0.78882 0.24175 0.54398 0.00000
F1062 F 0.76793 0.28022 0.46048 0.00000
F1063 F 0.72495 0.24391 0.45529 0.00000
C1064 C 0.77377 0.74881 0.52007 0.00000
C1065 C 0.75533 0.77141 0.52309 0.00000
C1066 C 0.73786 0.77985 0.50303 0.00000
C1067 C 0.74036 0.76531 0.47939 0.00000
C1068 C 0.75901 0.74320 0.47628 0.00000
C1069 C 0.77608 0.73455 0.49676 0.00000
F1070 F 0.78945 0.74065 0.54097 0.00000
F1071 F 0.75375 0.78385 0.54672 0.00000
F1072 F 0.72446 0.77296 0.45846 0.00000
F1073 F 0.76066 0.72999 0.45262 0.00000
C1074 C 0.25714 0.23966 0.52295 0.00000
C1075 C 0.23872 0.26223 0.51962 0.00000
C1076 C 0.22416 0.26608 0.49654 0.00000
C1077 C 0.22961 0.24689 0.47649 0.00000
C1078 C 0.24826 0.22480 0.47967 0.00000
C1079 C 0.26236 0.22082 0.50316 0.00000
F1080 F 0.26981 0.23623 0.54659 0.00000
F1081 F 0.23416 0.27936 0.54015 0.00000
F1082 F 0.21672 0.24981 0.45288 0.00000
F1083 F 0.25288 0.20689 0.45926 0.00000
C1084 C 0.25372 0.52812 0.77401 0.00000
C1085 C 0.24364 0.52482 0.74846 0.00000
C1086 C 0.23010 0.50061 0.74073 0.00000
C1087 C 0.22796 0.47933 0.75943 0.00000
C1088 C 0.23841 0.48245 0.78463 0.00000
C1089 C 0.25149 0.50712 0.79234 0.00000
F1090 F 0.26565 0.55299 0.78079 0.00000
F1091 F 0.24596 0.54662 0.73183 0.00000
F1092 F 0.21566 0.45451 0.75303 0.00000
F1093 F 0.23590 0.46080 0.80196 0.00000
C1094 C 0.48905 0.22572 0.78853 0.00000
C1095 C 0.48905 0.21285 0.76391 0.00000
C1096 C 0.49616 0.22750 0.74156 0.00000
C1097 C 0.50229 0.25595 0.74477 0.00000
C1098 C 0.50180 0.26880 0.76915 0.00000
C1099 C 0.49516 0.25372 0.79156 0.00000
F1100 F 0.48319 0.20983 0.80996 0.00000
F1101 F 0.48354 0.18518 0.76263 0.00000
F1102 F 0.50864 0.27198 0.72355 0.00000
F1103 F 0.50775 0.29674 0.77098 0.00000
loop_
_geom_bond_atom_site_label_1
_geom_bond_atom_site_label_2
_geom_bond_distance
_geom_bond_site_symmetry_2
_ccdc_geom_bond_type
O0 Zn6 2.282 . S
O0 C16 1.225 . A
O1 Zn8 1.972 . S
O1 C19 1.251 . A
O2 Zn6 1.963 . S
O2 C17 1.263 . A
O3 Zn9 1.932 . S
O3 C20 1.270 . A
O4 Zn9 1.971 . S
O4 C22 1.264 . A
O5 Zn6 1.949 . S
O5 Zn7 1.915 . S
O5 Zn8 1.963 . S
O5 Zn9 1.918 . S
Zn6 O10 2.105 . S
Zn6 O23 1.937 . S
Zn7 O11 1.944 . S
Zn7 O12 1.958 . S
Zn7 O15 1.978 . S
Zn8 O14 2.107 . S
Zn8 O24 2.258 . S
Zn8 O25 1.943 . S
Zn9 O13 1.963 . S
O10 C20 1.238 . A
O11 C18 1.252 . A
O12 C17 1.261 . A
O13 C19 1.257 . A
O14 C18 1.240 . A
O15 C22 1.258 . A
C16 O25 1.283 . A
C21 O23 1.265 . A
C21 O24 1.229 . A
O26 Zn32 2.282 . S
O26 C42 1.225 . A
O27 Zn34 1.972 . S
O27 C45 1.251 . A
O28 Zn32 1.963 . S
O28 C43 1.263 . A
O29 Zn35 1.932 . S
O29 C46 1.270 . A
O30 Zn35 1.971 . S
O30 C48 1.264 . A
O31 Zn32 1.949 . S
O31 Zn33 1.915 . S
O31 Zn34 1.963 . S
O31 Zn35 1.918 . S
Zn32 O36 2.105 . S
Zn32 O49 1.937 . S
Zn33 O37 1.944 . S
Zn33 O38 1.958 . S
Zn33 O41 1.978 . S
Zn34 O40 2.107 . S
Zn34 O50 2.258 . S
Zn34 O51 1.943 . S
Zn35 O39 1.963 . S
O36 C46 1.238 . A
O37 C44 1.252 . A
O38 C43 1.261 . A
O39 C45 1.257 . A
O40 C44 1.240 . A
O41 C48 1.258 . A
C42 O51 1.283 . A
C47 O49 1.265 . A
C47 O50 1.229 . A
O52 Zn58 2.282 . S
O52 C68 1.225 . A
O53 Zn60 1.972 . S
O53 C71 1.251 . A
O54 Zn58 1.963 . S
O54 C69 1.263 . A
O55 Zn61 1.932 . S
O55 C72 1.270 . A
O56 Zn61 1.971 . S
O56 C74 1.264 . A
O57 Zn58 1.949 . S
O57 Zn59 1.915 . S
O57 Zn60 1.963 . S
O57 Zn61 1.918 . S
Zn58 O62 2.105 . S
Zn58 O75 1.937 . S
Zn59 O63 1.944 . S
Zn59 O64 1.958 . S
Zn59 O67 1.978 . S
Zn60 O66 2.107 . S
Zn60 O76 2.258 . S
Zn60 O77 1.943 . S
Zn61 O65 1.963 . S
O62 C72 1.238 . A
O63 C70 1.252 . A
O64 C69 1.261 . A
O65 C71 1.257 . A
O66 C70 1.240 . A
O67 C74 1.258 . A
C68 O77 1.283 . A
C73 O75 1.265 . A
C73 O76 1.229 . A
O78 Zn84 2.282 . S
O78 C94 1.225 . A
O79 Zn86 1.972 . S
O79 C97 1.251 . A
O80 Zn84 1.963 . S
O80 C95 1.263 . A
O81 Zn87 1.932 . S
O81 C98 1.270 . A
O82 Zn87 1.971 . S
O82 C100 1.264 . A
O83 Zn84 1.949 . S
O83 Zn85 1.915 . S
O83 Zn86 1.963 . S
O83 Zn87 1.918 . S
Zn84 O88 2.105 . S
Zn84 O101 1.937 . S
Zn85 O89 1.944 . S
Zn85 O90 1.958 . S
Zn85 O93 1.978 . S
Zn86 O92 2.107 . S
Zn86 O102 2.258 . S
Zn86 O103 1.943 . S
Zn87 O91 1.963 . S
O88 C98 1.238 . A
O89 C96 1.252 . A
O90 C95 1.261 . A
O91 C97 1.257 . A
O92 C96 1.240 . A
O93 C100 1.258 . A
C94 O103 1.283 . A
C99 O101 1.265 . A
C99 O102 1.229 . A
O104 Zn110 2.282 . S
O104 C120 1.225 . A
O105 Zn112 1.972 . S
O105 C123 1.251 . A
O106 Zn110 1.963 . S
O106 C121 1.263 . A
O107 Zn113 1.932 . S
O107 C124 1.270 . A
O108 Zn113 1.971 . S
O108 C126 1.264 . A
O109 Zn110 1.949 . S
O109 Zn111 1.915 . S
O109 Zn112 1.963 . S
O109 Zn113 1.918 . S
Zn110 O114 2.105 . S
Zn110 O127 1.937 . S
Zn111 O115 1.944 . S
Zn111 O116 1.958 . S
Zn111 O119 1.978 . S
Zn112 O118 2.107 . S
Zn112 O128 2.258 . S
Zn112 O129 1.943 . S
Zn113 O117 1.963 . S
O114 C124 1.238 . A
O115 C122 1.252 . A
O116 C121 1.261 . A
O117 C123 1.257 . A
O118 C122 1.240 . A
O119 C126 1.258 . A
C120 O129 1.283 . A
C125 O127 1.265 . A
C125 O128 1.229 . A
O130 Zn136 2.282 . S
O130 C146 1.225 . A
O131 Zn138 1.972 . S
O131 C149 1.251 . A
O132 Zn136 1.963 . S
O132 C147 1.263 . A
O133 Zn139 1.932 . S
O133 C150 1.270 . A
O134 Zn139 1.971 . S
O134 C152 1.264 . A
O135 Zn136 1.949 . S
O135 Zn137 1.915 . S
O135 Zn138 1.963 . S
O135 Zn139 1.918 . S
Zn136 O140 2.105 . S
Zn136 O153 1.937 . S
Zn137 O141 1.944 . S
Zn137 O142 1.958 . S
Zn137 O145 1.978 . S
Zn138 O144 2.107 . S
Zn138 O154 2.258 . S
Zn138 O155 1.943 . S
Zn139 O143 1.963 . S
O140 C150 1.238 . A
O141 C148 1.252 . A
O142 C147 1.261 . A
O143 C149 1.257 . A
O144 C148 1.240 . A
O145 C152 1.258 . A
C146 O155 1.283 . A
C151 O153 1.265 . A
C151 O154 1.229 . A
O156 Zn162 2.282 . S
O156 C172 1.225 . A
O157 Zn164 1.972 . S
O157 C175 1.251 . A
O158 Zn162 1.963 . S
O158 C173 1.263 . A
O159 Zn165 1.932 . S
O159 C176 1.270 . A
O160 Zn165 1.971 . S
O160 C178 1.264 . A
O161 Zn162 1.949 . S
O161 Zn163 1.915 . S
O161 Zn164 1.963 . S
O161 Zn165 1.918 . S
Zn162 O166 2.105 . S
Zn162 O179 1.937 . S
Zn163 O167 1.944 . S
Zn163 O168 1.958 . S
Zn163 O171 1.978 . S
Zn164 O170 2.107 . S
Zn164 O180 2.258 . S
Zn164 O181 1.943 . S
Zn165 O169 1.963 . S
O166 C176 1.238 . A
O167 C174 1.252 . A
O168 C173 1.261 . A
O169 C175 1.257 . A
O170 C174 1.240 . A
O171 C178 1.258 . A
C172 O181 1.283 . A
C177 O179 1.265 . A
C177 O180 1.229 . A
O182 Zn188 2.282 . S
O182 C198 1.225 . A
O183 Zn190 1.972 . S
O183 C201 1.251 . A
O184 Zn188 1.963 . S
O184 C199 1.263 . A
O185 Zn191 1.932 . S
O185 C202 1.270 . A
O186 Zn191 1.971 . S
O186 C204 1.264 . A
O187 Zn188 1.949 . S
O187 Zn189 1.915 . S
O187 Zn190 1.963 . S
O187 Zn191 1.918 . S
Zn188 O192 2.105 . S
Zn188 O205 1.937 . S
Zn189 O193 1.944 . S
Zn189 O194 1.958 . S
Zn189 O197 1.978 . S
Zn190 O196 2.107 . S
Zn190 O206 2.258 . S
Zn190 O207 1.943 . S
Zn191 O195 1.963 . S
O192 C202 1.238 . A
O193 C200 1.252 . A
O194 C199 1.261 . A
O195 C201 1.257 . A
O196 C200 1.240 . A
O197 C204 1.258 . A
C198 O207 1.283 . A
C203 O205 1.265 . A
C203 O206 1.229 . A
O208 Zn214 2.282 . S
O208 C224 1.225 . A
O209 Zn216 1.972 . S
O209 C227 1.251 . A
O210 Zn214 1.963 . S
O210 C225 1.263 . A
O211 Zn217 1.932 . S
O211 C228 1.270 . A
O212 Zn217 1.971 . S
O212 C230 1.264 . A
O213 Zn214 1.949 . S
O213 Zn215 1.915 . S
O213 Zn216 1.963 . S
O213 Zn217 1.918 . S
Zn214 O218 2.105 . S
Zn214 O231 1.937 . S
Zn215 O219 1.944 . S
Zn215 O220 1.958 . S
Zn215 O223 1.978 . S
Zn216 O222 2.107 . S
Zn216 O232 2.258 . S
Zn216 O233 1.943 . S
Zn217 O221 1.963 . S
O218 C228 1.238 . A
O219 C226 1.252 . A
O220 C225 1.261 . A
O221 C227 1.257 . A
O222 C226 1.240 . A
O223 C230 1.258 . A
C224 O233 1.283 . A
C229 O231 1.265 . A
C229 O232 1.229 . A
O234 Zn240 2.282 . S
O234 C250 1.225 . A
O235 Zn242 1.972 . S
O235 C253 1.251 . A
O236 Zn240 1.963 . S
O236 C251 1.263 . A
O237 Zn243 1.932 . S
O237 C254 1.270 . A
O238 Zn243 1.971 . S
O238 C256 1.264 . A
O239 Zn240 1.949 . S
O239 Zn241 1.915 . S
O239 Zn242 1.963 . S
O239 Zn243 1.918 . S
Zn240 O244 2.105 . S
Zn240 O257 1.937 . S
Zn241 O245 1.944 . S
Zn241 O246 1.958 . S
Zn241 O249 1.978 . S
Zn242 O248 2.107 . S
Zn242 O258 2.258 . S
Zn242 O259 1.943 . S
Zn243 O247 1.963 . S
O244 C254 1.238 . A
O245 C252 1.252 . A
O246 C251 1.261 . A
O247 C253 1.257 . A
O248 C252 1.240 . A
O249 C256 1.258 . A
C250 O259 1.283 . A
C255 O257 1.265 . A
C255 O258 1.229 . A
O260 Zn266 2.282 . S
O260 C276 1.225 . A
O261 Zn268 1.972 . S
O261 C279 1.251 . A
O262 Zn266 1.963 . S
O262 C277 1.263 . A
O263 Zn269 1.932 . S
O263 C280 1.270 . A
O264 Zn269 1.971 . S
O264 C282 1.264 . A
O265 Zn266 1.949 . S
O265 Zn267 1.915 . S
O265 Zn268 1.963 . S
O265 Zn269 1.918 . S
Zn266 O270 2.105 . S
Zn266 O283 1.937 . S
Zn267 O271 1.944 . S
Zn267 O272 1.958 . S
Zn267 O275 1.978 . S
Zn268 O274 2.107 . S
Zn268 O284 2.258 . S
Zn268 O285 1.943 . S
Zn269 O273 1.963 . S
O270 C280 1.238 . A
O271 C278 1.252 . A
O272 C277 1.261 . A
O273 C279 1.257 . A
O274 C278 1.240 . A
O275 C282 1.258 . A
C276 O285 1.283 . A
C281 O283 1.265 . A
C281 O284 1.229 . A
O286 Zn292 2.282 . S
O286 C302 1.225 . A
O287 Zn294 1.972 . S
O287 C305 1.251 . A
O288 Zn292 1.963 . S
O288 C303 1.263 . A
O289 Zn295 1.932 . S
O289 C306 1.270 . A
O290 Zn295 1.971 . S
O290 C308 1.264 . A
O291 Zn292 1.949 . S
O291 Zn293 1.915 . S
O291 Zn294 1.963 . S
O291 Zn295 1.918 . S
Zn292 O296 2.105 . S
Zn292 O309 1.937 . S
Zn293 O297 1.944 . S
Zn293 O298 1.958 . S
Zn293 O301 1.978 . S
Zn294 O300 2.107 . S
Zn294 O310 2.258 . S
Zn294 O311 1.943 . S
Zn295 O299 1.963 . S
O296 C306 1.238 . A
O297 C304 1.252 . A
O298 C303 1.261 . A
O299 C305 1.257 . A
O300 C304 1.240 . A
O301 C308 1.258 . A
C302 O311 1.283 . A
C307 O309 1.265 . A
C307 O310 1.229 . A
O312 Zn318 2.282 . S
O312 C328 1.225 . A
O313 Zn320 1.972 . S
O313 C331 1.251 . A
O314 Zn318 1.963 . S
O314 C329 1.263 . A
O315 Zn321 1.932 . S
O315 C332 1.270 . A
O316 Zn321 1.971 . S
O316 C334 1.264 . A
O317 Zn318 1.949 . S
O317 Zn319 1.915 . S
O317 Zn320 1.963 . S
O317 Zn321 1.918 . S
Zn318 O322 2.105 . S
Zn318 O335 1.937 . S
Zn319 O323 1.944 . S
Zn319 O324 1.958 . S
Zn319 O327 1.978 . S
Zn320 O326 2.107 . S
Zn320 O336 2.258 . S
Zn320 O337 1.943 . S
Zn321 O325 1.963 . S
O322 C332 1.238 . A
O323 C330 1.252 . A
O324 C329 1.261 . A
O325 C331 1.257 . A
O326 C330 1.240 . A
O327 C334 1.258 . A
C328 O337 1.283 . A
C333 O335 1.265 . A
C333 O336 1.229 . A
O338 Zn344 2.282 . S
O338 C354 1.225 . A
O339 Zn346 1.972 . S
O339 C357 1.251 . A
O340 Zn344 1.963 . S
O340 C355 1.263 . A
O341 Zn347 1.932 . S
O341 C358 1.270 . A
O342 Zn347 1.971 . S
O342 C360 1.264 . A
O343 Zn344 1.949 . S
O343 Zn345 1.915 . S
O343 Zn346 1.963 . S
O343 Zn347 1.918 . S
Zn344 O348 2.105 . S
Zn344 O361 1.937 . S
Zn345 O349 1.944 . S
Zn345 O350 1.958 . S
Zn345 O353 1.978 . S
Zn346 O352 2.107 . S
Zn346 O362 2.258 . S
Zn346 O363 1.943 . S
Zn347 O351 1.963 . S
O348 C358 1.238 . A
O349 C356 1.252 . A
O350 C355 1.261 . A
O351 C357 1.257 . A
O352 C356 1.240 . A
O353 C360 1.258 . A
C354 O363 1.283 . A
C359 O361 1.265 . A
C359 O362 1.229 . A
O364 Zn370 2.282 . S
O364 C380 1.225 . A
O365 Zn372 1.972 . S
O365 C383 1.251 . A
O366 Zn370 1.963 . S
O366 C381 1.263 . A
O367 Zn373 1.932 . S
O367 C384 1.270 . A
O368 Zn373 1.971 . S
O368 C386 1.264 . A
O369 Zn370 1.949 . S
O369 Zn371 1.915 . S
O369 Zn372 1.963 . S
O369 Zn373 1.918 . S
Zn370 O374 2.105 . S
Zn370 O387 1.937 . S
Zn371 O375 1.944 . S
Zn371 O376 1.958 . S
Zn371 O379 1.978 . S
Zn372 O378 2.107 . S
Zn372 O388 2.258 . S
Zn372 O389 1.943 . S
Zn373 O377 1.963 . S
O374 C384 1.238 . A
O375 C382 1.252 . A
O376 C381 1.261 . A
O377 C383 1.257 . A
O378 C382 1.240 . A
O379 C386 1.258 . A
C380 O389 1.283 . A
C385 O387 1.265 . A
C385 O388 1.229 . A
O390 Zn396 2.282 . S
O390 C406 1.225 . A
O391 Zn398 1.972 . S
O391 C409 1.251 . A
O392 Zn396 1.963 . S
O392 C407 1.263 . A
O393 Zn399 1.932 . S
O393 C410 1.270 . A
O394 Zn399 1.971 . S
O394 C412 1.264 . A
O395 Zn396 1.949 . S
O395 Zn397 1.915 . S
O395 Zn398 1.963 . S
O395 Zn399 1.918 . S
Zn396 O400 2.105 . S
Zn396 O413 1.937 . S
Zn397 O401 1.944 . S
Zn397 O402 1.958 . S
Zn397 O405 1.978 . S
Zn398 O404 2.107 . S
Zn398 O414 2.258 . S
Zn398 O415 1.943 . S
Zn399 O403 1.963 . S
O400 C410 1.238 . A
O401 C408 1.252 . A
O402 C407 1.261 . A
O403 C409 1.257 . A
O404 C408 1.240 . A
O405 C412 1.258 . A
C406 O415 1.283 . A
C411 O413 1.265 . A
C411 O414 1.229 . A
O416 Zn422 2.282 . S
O416 C432 1.225 . A
O417 Zn424 1.972 . S
O417 C435 1.251 . A
O418 Zn422 1.963 . S
O418 C433 1.263 . A
O419 Zn425 1.932 . S
O419 C436 1.270 . A
O420 Zn425 1.971 . S
O420 C438 1.264 . A
O421 Zn422 1.949 . S
O421 Zn423 1.915 . S
O421 Zn424 1.963 . S
O421 Zn425 1.918 . S
Zn422 O426 2.105 . S
Zn422 O439 1.937 . S
Zn423 O427 1.944 . S
Zn423 O428 1.958 . S
Zn423 O431 1.978 . S
Zn424 O430 2.107 . S
Zn424 O440 2.258 . S
Zn424 O441 1.943 . S
Zn425 O429 1.963 . S
O426 C436 1.238 . A
O427 C434 1.252 . A
O428 C433 1.261 . A
O429 C435 1.257 . A
O430 C434 1.240 . A
O431 C438 1.258 . A
C432 O441 1.283 . A
C437 O439 1.265 . A
C437 O440 1.229 . A
O442 Zn448 2.282 . S
O442 C458 1.225 . A
O443 Zn450 1.972 . S
O443 C461 1.251 . A
O444 Zn448 1.963 . S
O444 C459 1.263 . A
O445 Zn451 1.932 . S
O445 C462 1.270 . A
O446 Zn451 1.971 . S
O446 C464 1.264 . A
O447 Zn448 1.949 . S
O447 Zn449 1.915 . S
O447 Zn450 1.963 . S
O447 Zn451 1.918 . S
Zn448 O452 2.105 . S
Zn448 O465 1.937 . S
Zn449 O453 1.944 . S
Zn449 O454 1.958 . S
Zn449 O457 1.978 . S
Zn450 O456 2.107 . S
Zn450 O466 2.258 . S
Zn450 O467 1.943 . S
Zn451 O455 1.963 . S
O452 C462 1.238 . A
O453 C460 1.252 . A
O454 C459 1.261 . A
O455 C461 1.257 . A
O456 C460 1.240 . A
O457 C464 1.258 . A
C458 O467 1.283 . A
C463 O465 1.265 . A
C463 O466 1.229 . A
O468 Zn474 2.282 . S
O468 C484 1.225 . A
O469 Zn476 1.972 . S
O469 C487 1.251 . A
O470 Zn474 1.963 . S
O470 C485 1.263 . A
O471 Zn477 1.932 . S
O471 C488 1.270 . A
O472 Zn477 1.971 . S
O472 C490 1.264 . A
O473 Zn474 1.949 . S
O473 Zn475 1.915 . S
O473 Zn476 1.963 . S
O473 Zn477 1.918 . S
Zn474 O478 2.105 . S
Zn474 O491 1.937 . S
Zn475 O479 1.944 . S
Zn475 O480 1.958 . S
Zn475 O483 1.978 . S
Zn476 O482 2.107 . S
Zn476 O492 2.258 . S
Zn476 O493 1.943 . S
Zn477 O481 1.963 . S
O478 C488 1.238 . A
O479 C486 1.252 . A
O480 C485 1.261 . A
O481 C487 1.257 . A
O482 C486 1.240 . A
O483 C490 1.258 . A
C484 O493 1.283 . A
C489 O491 1.265 . A
C489 O492 1.229 . A
O494 Zn500 2.282 . S
O494 C510 1.225 . A
O495 Zn502 1.972 . S
O495 C513 1.251 . A
O496 Zn500 1.963 . S
O496 C511 1.263 . A
O497 Zn503 1.932 . S
O497 C514 1.270 . A
O498 Zn503 1.971 . S
O498 C516 1.264 . A
O499 Zn500 1.949 . S
O499 Zn501 1.915 . S
O499 Zn502 1.963 . S
O499 Zn503 1.918 . S
Zn500 O504 2.105 . S
Zn500 O517 1.937 . S
Zn501 O505 1.944 . S
Zn501 O506 1.958 . S
Zn501 O509 1.978 . S
Zn502 O508 2.107 . S
Zn502 O518 2.258 . S
Zn502 O519 1.943 . S
Zn503 O507 1.963 . S
O504 C514 1.238 . A
O505 C512 1.252 . A
O506 C511 1.261 . A
O507 C513 1.257 . A
O508 C512 1.240 . A
O509 C516 1.258 . A
C510 O519 1.283 . A
C515 O517 1.265 . A
C515 O518 1.229 . A
O520 Zn526 2.282 . S
O520 C536 1.225 . A
O521 Zn528 1.972 . S
O521 C539 1.251 . A
O522 Zn526 1.963 . S
O522 C537 1.263 . A
O523 Zn529 1.932 . S
O523 C540 1.270 . A
O524 Zn529 1.971 . S
O524 C542 1.264 . A
O525 Zn526 1.949 . S
O525 Zn527 1.915 . S
O525 Zn528 1.963 . S
O525 Zn529 1.918 . S
Zn526 O530 2.105 . S
Zn526 O543 1.937 . S
Zn527 O531 1.944 . S
Zn527 O532 1.958 . S
Zn527 O535 1.978 . S
Zn528 O534 2.107 . S
Zn528 O544 2.258 . S
Zn528 O545 1.943 . S
Zn529 O533 1.963 . S
O530 C540 1.238 . A
O531 C538 1.252 . A
O532 C537 1.261 . A
O533 C539 1.257 . A
O534 C538 1.240 . A
O535 C542 1.258 . A
C536 O545 1.283 . A
C541 O543 1.265 . A
C541 O544 1.229 . A
O546 Zn552 2.282 . S
O546 C562 1.225 . A
O547 Zn554 1.972 . S
O547 C565 1.251 . A
O548 Zn552 1.963 . S
O548 C563 1.263 . A
O549 Zn555 1.932 . S
O549 C566 1.270 . A
O550 Zn555 1.971 . S
O550 C568 1.264 . A
O551 Zn552 1.949 . S
O551 Zn553 1.915 . S
O551 Zn554 1.963 . S
O551 Zn555 1.918 . S
Zn552 O556 2.105 . S
Zn552 O569 1.937 . S
Zn553 O557 1.944 . S
Zn553 O558 1.958 . S
Zn553 O561 1.978 . S
Zn554 O560 2.107 . S
Zn554 O570 2.258 . S
Zn554 O571 1.943 . S
Zn555 O559 1.963 . S
O556 C566 1.238 . A
O557 C564 1.252 . A
O558 C563 1.261 . A
O559 C565 1.257 . A
O560 C564 1.240 . A
O561 C568 1.258 . A
C562 O571 1.283 . A
C567 O569 1.265 . A
C567 O570 1.229 . A
O572 Zn578 2.282 . S
O572 C588 1.225 . A
O573 Zn580 1.972 . S
O573 C591 1.251 . A
O574 Zn578 1.963 . S
O574 C589 1.263 . A
O575 Zn581 1.932 . S
O575 C592 1.270 . A
O576 Zn581 1.971 . S
O576 C594 1.264 . A
O577 Zn578 1.949 . S
O577 Zn579 1.915 . S
O577 Zn580 1.963 . S
O577 Zn581 1.918 . S
Zn578 O582 2.105 . S
Zn578 O595 1.937 . S
Zn579 O583 1.944 . S
Zn579 O584 1.958 . S
Zn579 O587 1.978 . S
Zn580 O586 2.107 . S
Zn580 O596 2.258 . S
Zn580 O597 1.943 . S
Zn581 O585 1.963 . S
O582 C592 1.238 . A
O583 C590 1.252 . A
O584 C589 1.261 . A
O585 C591 1.257 . A
O586 C590 1.240 . A
O587 C594 1.258 . A
C588 O597 1.283 . A
C593 O595 1.265 . A
C593 O596 1.229 . A
O598 Zn604 2.282 . S
O598 C614 1.225 . A
O599 Zn606 1.972 . S
O599 C617 1.251 . A
O600 Zn604 1.963 . S
O600 C615 1.263 . A
O601 Zn607 1.932 . S
O601 C618 1.270 . A
O602 Zn607 1.971 . S
O602 C620 1.264 . A
O603 Zn604 1.949 . S
O603 Zn605 1.915 . S
O603 Zn606 1.963 . S
O603 Zn607 1.918 . S
Zn604 O608 2.105 . S
Zn604 O621 1.937 . S
Zn605 O609 1.944 . S
Zn605 O610 1.958 . S
Zn605 O613 1.978 . S
Zn606 O612 2.107 . S
Zn606 O622 2.258 . S
Zn606 O623 1.943 . S
Zn607 O611 1.963 . S
O608 C618 1.238 . A
O609 C616 1.252 . A
O610 C615 1.261 . A
O611 C617 1.257 . A
O612 C616 1.240 . A
O613 C620 1.258 . A
C614 O623 1.283 . A
C619 O621 1.265 . A
C619 O622 1.229 . A
C624 C625 1.382 . A
C624 C629 1.359 . A
C624 F630 1.344 . S
C625 C626 1.364 . A
C625 F631 1.331 . S
C626 C627 1.381 . A
C627 C628 1.372 . A
C627 F632 1.344 . S
C628 C629 1.372 . A
C628 F633 1.349 . S
C634 C635 1.382 . A
C634 C639 1.359 . A
C634 F640 1.344 . S
C635 C636 1.364 . A
C635 F641 1.331 . S
C636 C637 1.381 . A
C637 C638 1.372 . A
C637 F642 1.344 . S
C638 C639 1.372 . A
C638 F643 1.349 . S
C644 C645 1.382 . A
C644 C649 1.359 . A
C644 F650 1.344 . S
C645 C646 1.364 . A
C645 F651 1.331 . S
C646 C647 1.381 . A
C647 C648 1.372 . A
C647 F652 1.344 . S
C648 C649 1.372 . A
C648 F653 1.349 . S
C654 C655 1.382 . A
C654 C659 1.359 . A
C654 F660 1.344 . S
C655 C656 1.364 . A
C655 F661 1.331 . S
C656 C657 1.381 . A
C657 C658 1.372 . A
C657 F662 1.344 . S
C658 C659 1.372 . A
C658 F663 1.349 . S
C664 C665 1.382 . A
C664 C669 1.359 . A
C664 F670 1.344 . S
C665 C666 1.364 . A
C665 F671 1.331 . S
C666 C667 1.381 . A
C667 C668 1.372 . A
C667 F672 1.344 . S
C668 C669 1.372 . A
C668 F673 1.349 . S
C674 C675 1.382 . A
C674 C679 1.359 . A
C674 F680 1.344 . S
C675 C676 1.364 . A
C675 F681 1.331 . S
C676 C677 1.381 . A
C677 C678 1.372 . A
C677 F682 1.344 . S
C678 C679 1.372 . A
C678 F683 1.349 . S
C684 C685 1.382 . A
C684 C689 1.359 . A
C684 F690 1.344 . S
C685 C686 1.364 . A
C685 F691 1.331 . S
C686 C687 1.381 . A
C687 C688 1.372 . A
C687 F692 1.344 . S
C688 C689 1.372 . A
C688 F693 1.349 . S
C694 C695 1.382 . A
C694 C699 1.359 . A
C694 F700 1.344 . S
C695 C696 1.364 . A
C695 F701 1.331 . S
C696 C697 1.381 . A
C697 C698 1.372 . A
C697 F702 1.344 . S
C698 C699 1.372 . A
C698 F703 1.349 . S
C704 C705 1.382 . A
C704 C709 1.359 . A
C704 F710 1.344 . S
C705 C706 1.364 . A
C705 F711 1.331 . S
C706 C707 1.381 . A
C707 C708 1.372 . A
C707 F712 1.344 . S
C708 C709 1.372 . A
C708 F713 1.349 . S
C714 C715 1.382 . A
C714 C719 1.359 . A
C714 F720 1.344 . S
C715 C716 1.364 . A
C715 F721 1.331 . S
C716 C717 1.381 . A
C717 C718 1.372 . A
C717 F722 1.344 . S
C718 C719 1.372 . A
C718 F723 1.349 . S
C724 C725 1.382 . A
C724 C729 1.359 . A
C724 F730 1.344 . S
C725 C726 1.364 . A
C725 F731 1.331 . S
C726 C727 1.381 . A
C727 C728 1.372 . A
C727 F732 1.344 . S
C728 C729 1.372 . A
C728 F733 1.349 . S
C734 C735 1.382 . A
C734 C739 1.359 . A
C734 F740 1.344 . S
C735 C736 1.364 . A
C735 F741 1.331 . S
C736 C737 1.381 . A
C737 C738 1.372 . A
C737 F742 1.344 . S
C738 C739 1.372 . A
C738 F743 1.349 . S
C744 C745 1.382 . A
C744 C749 1.359 . A
C744 F750 1.344 . S
C745 C746 1.364 . A
C745 F751 1.331 . S
C746 C747 1.381 . A
C747 C748 1.372 . A
C747 F752 1.344 . S
C748 C749 1.372 . A
C748 F753 1.349 . S
C754 C755 1.382 . A
C754 C759 1.359 . A
C754 F760 1.344 . S
C755 C756 1.364 . A
C755 F761 1.331 . S
C756 C757 1.381 . A
C757 C758 1.372 . A
C757 F762 1.344 . S
C758 C759 1.372 . A
C758 F763 1.349 . S
C764 C765 1.382 . A
C764 C769 1.359 . A
C764 F770 1.344 . S
C765 C766 1.364 . A
C765 F771 1.331 . S
C766 C767 1.381 . A
C767 C768 1.372 . A
C767 F772 1.344 . S
C768 C769 1.372 . A
C768 F773 1.349 . S
C774 C775 1.382 . A
C774 C779 1.359 . A
C774 F780 1.344 . S
C775 C776 1.364 . A
C775 F781 1.331 . S
C776 C777 1.381 . A
C777 C778 1.372 . A
C777 F782 1.344 . S
C778 C779 1.372 . A
C778 F783 1.349 . S
C784 C785 1.382 . A
C784 C789 1.359 . A
C784 F790 1.344 . S
C785 C786 1.364 . A
C785 F791 1.331 . S
C786 C787 1.381 . A
C787 C788 1.372 . A
C787 F792 1.344 . S
C788 C789 1.372 . A
C788 F793 1.349 . S
C794 C795 1.382 . A
C794 C799 1.359 . A
C794 F800 1.344 . S
C795 C796 1.364 . A
C795 F801 1.331 . S
C796 C797 1.381 . A
C797 C798 1.372 . A
C797 F802 1.344 . S
C798 C799 1.372 . A
C798 F803 1.349 . S
C804 C805 1.382 . A
C804 C809 1.359 . A
C804 F810 1.344 . S
C805 C806 1.364 . A
C805 F811 1.331 . S
C806 C807 1.381 . A
C807 C808 1.372 . A
C807 F812 1.344 . S
C808 C809 1.372 . A
C808 F813 1.349 . S
C814 C815 1.382 . A
C814 C819 1.359 . A
C814 F820 1.344 . S
C815 C816 1.364 . A
C815 F821 1.331 . S
C816 C817 1.381 . A
C817 C818 1.372 . A
C817 F822 1.344 . S
C818 C819 1.372 . A
C818 F823 1.349 . S
C824 C825 1.382 . A
C824 C829 1.359 . A
C824 F830 1.344 . S
C825 C826 1.364 . A
C825 F831 1.331 . S
C826 C827 1.381 . A
C827 C828 1.372 . A
C827 F832 1.344 . S
C828 C829 1.372 . A
C828 F833 1.349 . S
C834 C835 1.382 . A
C834 C839 1.359 . A
C834 F840 1.344 . S
C835 C836 1.364 . A
C835 F841 1.331 . S
C836 C837 1.381 . A
C837 C838 1.372 . A
C837 F842 1.344 . S
C838 C839 1.372 . A
C838 F843 1.349 . S
C844 C845 1.382 . A
C844 C849 1.359 . A
C844 F850 1.344 . S
C845 C846 1.364 . A
C845 F851 1.331 . S
C846 C847 1.381 . A
C847 C848 1.372 . A
C847 F852 1.344 . S
C848 C849 1.372 . A
C848 F853 1.349 . S
C854 C855 1.382 . A
C854 C859 1.359 . A
C854 F860 1.344 . S
C855 C856 1.364 . A
C855 F861 1.331 . S
C856 C857 1.381 . A
C857 C858 1.372 . A
C857 F862 1.344 . S
C858 C859 1.372 . A
C858 F863 1.349 . S
C864 C865 1.382 1_655 A
C864 C869 1.359 . A
C864 F870 1.344 . S
C865 C866 1.364 . A
C865 F871 1.331 . S
C866 C867 1.381 . A
C867 C868 1.372 1_455 A
C867 F872 1.344 . S
C868 C869 1.372 . A
C868 F873 1.349 . S
C874 C875 1.382 1_545 A
C874 C879 1.359 . A
C874 F880 1.344 . S
C875 C876 1.364 . A
C875 F881 1.331 . S
C876 C877 1.381 . A
C877 C878 1.372 1_565 A
C877 F882 1.344 . S
C878 C879 1.372 . A
C878 F883 1.349 . S
C884 C885 1.382 1_655 A
C884 C889 1.359 . A
C884 F890 1.344 . S
C885 C886 1.364 . A
C885 F891 1.331 . S
C886 C887 1.381 . A
C887 C888 1.372 1_455 A
C887 F892 1.344 . S
C888 C889 1.372 . A
C888 F893 1.349 . S
C894 C895 1.382 1_556 A
C894 C899 1.359 . A
C894 F900 1.344 . S
C895 C896 1.364 . A
C895 F901 1.331 . S
C896 C897 1.381 . A
C897 C898 1.372 1_554 A
C897 F902 1.344 . S
C898 C899 1.372 . A
C898 F903 1.349 . S
C904 C905 1.382 1_565 A
C904 C909 1.359 . A
C904 F910 1.344 . S
C905 C906 1.364 . A
C905 F911 1.331 . S
C906 C907 1.381 . A
C907 C908 1.372 1_545 A
C907 F912 1.344 . S
C908 C909 1.372 . A
C908 F913 1.349 . S
C914 C915 1.382 1_545 A
C914 C919 1.359 . A
C914 F920 1.344 . S
C915 C916 1.364 . A
C915 F921 1.331 . S
C916 C917 1.381 . A
C917 C918 1.372 1_565 A
C917 F922 1.344 . S
C918 C919 1.372 . A
C918 F923 1.349 . S
C924 C925 1.382 1_455 A
C924 C929 1.359 . A
C924 F930 1.344 . S
C925 C926 1.364 . A
C925 F931 1.331 . S
C926 C927 1.381 . A
C927 C928 1.372 1_655 A
C927 F932 1.344 . S
C928 C929 1.372 . A
C928 F933 1.349 . S
C934 C935 1.382 1_565 A
C934 C939 1.359 . A
C934 F940 1.344 . S
C935 C936 1.364 . A
C935 F941 1.331 . S
C936 C937 1.381 . A
C937 C938 1.372 1_545 A
C937 F942 1.344 . S
C938 C939 1.372 . A
C938 F943 1.349 . S
C944 C945 1.382 1_455 A
C944 C949 1.359 . A
C944 F950 1.344 . S
C945 C946 1.364 . A
C945 F951 1.331 . S
C946 C947 1.381 . A
C947 C948 1.372 1_655 A
C947 F952 1.344 . S
C948 C949 1.372 . A
C948 F953 1.349 . S
C954 C955 1.382 1_556 A
C954 C959 1.359 . A
C954 F960 1.344 . S
C955 C956 1.364 . A
C955 F961 1.331 . S
C956 C957 1.381 . A
C957 C958 1.372 1_554 A
C957 F962 1.344 . S
C958 C959 1.372 . A
C958 F963 1.349 . S
C964 C965 1.382 1_556 A
C964 C969 1.359 . A
C964 F970 1.344 . S
C965 C966 1.364 . A
C965 F971 1.331 . S
C966 C967 1.381 . A
C967 C968 1.372 1_554 A
C967 F972 1.344 . S
C968 C969 1.372 . A
C968 F973 1.349 . S
C974 C975 1.382 1_556 A
C974 C979 1.359 . A
C974 F980 1.344 . S
C975 C976 1.364 . A
C975 F981 1.331 . S
C976 C977 1.381 . A
C977 C978 1.372 1_554 A
C977 F982 1.344 . S
C978 C979 1.372 . A
C978 F983 1.349 . S
C984 C985 1.382 . A
C984 C989 1.359 . A
C984 F990 1.344 . S
C985 C986 1.364 . A
C985 F991 1.331 . S
C986 C987 1.381 . A
C987 C988 1.372 . A
C987 F992 1.344 . S
C988 C989 1.372 . A
C988 F993 1.349 . S
C994 C995 1.382 . A
C994 C999 1.359 . A
C994 F1000 1.344 . S
C995 C996 1.364 . A
C995 F1001 1.331 . S
C996 C997 1.381 . A
C997 C998 1.372 . A
C997 F1002 1.344 . S
C998 C999 1.372 . A
C998 F1003 1.349 . S
C1004 C1005 1.382 . A
C1004 C1009 1.359 . A
C1004 F1010 1.344 . S
C1005 C1006 1.364 . A
C1005 F1011 1.331 . S
C1006 C1007 1.381 . A
C1007 C1008 1.372 . A
C1007 F1012 1.344 . S
C1008 C1009 1.372 . A
C1008 F1013 1.349 . S
C1014 C1015 1.382 . A
C1014 C1019 1.359 . A
C1014 F1020 1.344 . S
C1015 C1016 1.364 . A
C1015 F1021 1.331 . S
C1016 C1017 1.381 . A
C1017 C1018 1.372 . A
C1017 F1022 1.344 . S
C1018 C1019 1.372 . A
C1018 F1023 1.349 . S
C1024 C1025 1.382 . A
C1024 C1029 1.359 . A
C1024 F1030 1.344 . S
C1025 C1026 1.364 . A
C1025 F1031 1.331 . S
C1026 C1027 1.381 . A
C1027 C1028 1.372 . A
C1027 F1032 1.344 . S
C1028 C1029 1.372 . A
C1028 F1033 1.349 . S
C1034 C1035 1.382 . A
C1034 C1039 1.359 . A
C1034 F1040 1.344 . S
C1035 C1036 1.364 . A
C1035 F1041 1.331 . S
C1036 C1037 1.381 . A
C1037 C1038 1.372 . A
C1037 F1042 1.344 . S
C1038 C1039 1.372 . A
C1038 F1043 1.349 . S
C1044 C1045 1.382 . A
C1044 C1049 1.359 . A
C1044 F1050 1.344 . S
C1045 C1046 1.364 . A
C1045 F1051 1.331 . S
C1046 C1047 1.381 . A
C1047 C1048 1.372 . A
C1047 F1052 1.344 . S
C1048 C1049 1.372 . A
C1048 F1053 1.349 . S
C1054 C1055 1.382 . A
C1054 C1059 1.359 . A
C1054 F1060 1.344 . S
C1055 C1056 1.364 . A
C1055 F1061 1.331 . S
C1056 C1057 1.381 . A
C1057 C1058 1.372 . A
C1057 F1062 1.344 . S
C1058 C1059 1.372 . A
C1058 F1063 1.349 . S
C1064 C1065 1.382 . A
C1064 C1069 1.359 . A
C1064 F1070 1.344 . S
C1065 C1066 1.364 . A
C1065 F1071 1.331 . S
C1066 C1067 1.381 . A
C1067 C1068 1.372 . A
C1067 F1072 1.344 . S
C1068 C1069 1.372 . A
C1068 F1073 1.349 . S
C1074 C1075 1.382 . A
C1074 C1079 1.359 . A
C1074 F1080 1.344 . S
C1075 C1076 1.364 . A
C1075 F1081 1.331 . S
C1076 C1077 1.381 . A
C1077 C1078 1.372 . A
C1077 F1082 1.344 . S
C1078 C1079 1.372 . A
C1078 F1083 1.349 . S
C1084 C1085 1.382 . A
C1084 C1089 1.359 . A
C1084 F1090 1.344 . S
C1085 C1086 1.364 . A
C1085 F1091 1.331 . S
C1086 C1087 1.381 . A
C1087 C1088 1.372 . A
C1087 F1092 1.344 . S
C1088 C1089 1.372 . A
C1088 F1093 1.349 . S
C1094 C1095 1.382 . A
C1094 C1099 1.359 . A
C1094 F1100 1.344 . S
C1095 C1096 1.364 . A
C1095 F1101 1.331 . S
C1096 C1097 1.381 . A
C1097 C1098 1.372 . A
C1097 F1102 1.344 . S
C1098 C1099 1.372 . A
C1098 F1103 1.349 . S
C626 C384 1.376 . S
C629 C19 1.423 . S
C636 C45 1.446 . S
C639 C280 1.450 . S
C646 C306 1.392 . S
C649 C71 1.406 . S
C656 C228 1.381 . S
C659 C97 1.435 . S
C666 C332 1.440 . S
C669 C123 1.453 . S
C676 C410 1.326 . S
C679 C149 1.335 . S
C686 C488 1.360 . S
C689 C175 1.297 . S
C696 C565 1.369 . S
C699 C98 1.540 . S
C706 C253 1.430 . S
C709 C124 1.535 . S
C716 C202 1.509 . S
C719 C227 1.427 . S
C726 C591 1.386 . S
C729 C254 1.415 . S
C736 C358 1.386 . S
C739 C617 1.439 . S
C746 C357 1.364 . S
C749 C46 1.539 . S
C756 C566 1.379 . S
C759 C201 1.432 . S
C766 C409 1.327 . S
C769 C514 1.342 . S
C776 C176 1.327 . S
C779 C435 1.333 . S
C786 C436 1.328 . S
C789 C461 1.331 . S
C796 C462 1.328 . S
C799 C487 1.331 . S
C806 C513 1.280 . S
C809 C540 1.368 . S
C816 C539 1.327 . S
C819 C150 1.342 . S
C826 C383 1.350 . S
C829 C72 1.528 . S
C836 C331 1.421 . S
C839 C592 1.537 . S
C846 C279 1.368 . S
C849 C618 1.540 . S
C856 C20 1.512 . S
C859 C305 1.376 . S
C866 C594 2.278 . S
C869 C22 2.290 . S
C876 C100 2.271 . S
C879 C48 2.284 . S
C886 C126 2.271 . S
C889 C74 2.284 . S
C896 C178 1.606 . S
C899 C152 1.609 . S
C906 C620 2.271 . S
C909 C204 2.284 . S
C916 C224 1.071 . S
C919 C354 1.103 . S
C926 C302 1.094 . S
C929 C250 1.098 . S
C936 C276 1.095 . S
C939 C562 1.085 . S
C946 C380 1.074 . S
C949 C328 1.088 . S
C956 C438 1.604 . S
C959 C412 1.614 . S
C966 C464 1.604 . S
C969 C516 1.610 . S
C976 C490 1.601 . S
C979 C542 1.613 . S
C986 C146 1.428 . S
C989 C16 1.430 . S
C996 C42 1.404 . S
C999 C484 1.432 . S
C1006 C172 1.398 . S
C1009 C68 1.389 . S
C1016 C94 1.396 . S
C1019 C432 1.418 . S
C1026 C120 1.371 . S
C1029 C458 1.412 . S
C1036 C198 1.393 . S
C1039 C406 1.417 . S
C1046 C256 1.660 . S
C1049 C230 1.639 . S
C1056 C386 1.624 . S
C1059 C282 1.668 . S
C1066 C568 1.623 . S
C1069 C308 1.668 . S
C1076 C334 1.660 . S
C1079 C360 1.639 . S
C1086 C588 1.425 . S
C1089 C510 1.437 . S
C1096 C614 1.391 . S
C1099 C536 1.416 . S
