# Generated by pormake.
# Topology lta, (4)-cn, num edge types: 1
# Building blocks:
#     Node 0, Type 0, BuildingBlock: N691, # of connection points: 6
#     Node 1, Type 0, BuildingBlock: N691, # of connection points: 6
#     Node 2, Type 0, BuildingBlock: N691, # of connection points: 6
#     Node 3, Type 0, BuildingBlock: N691, # of connection points: 6
#     Node 4, Type 0, BuildingBlock: N691, # of connection points: 6
#     Node 5, Type 0, BuildingBlock: N691, # of connection points: 6
#     Node 6, Type 0, BuildingBlock: N691, # of connection points: 6
#     Node 7, Type 0, BuildingBlock: N691, # of connection points: 6
#     Node 8, Type 0, BuildingBlock: N691, # of connection points: 6
#     Node 9, Type 0, BuildingBlock: N691, # of connection points: 6
#     Node 10, Type 0, BuildingBlock: N691, # of connection points: 6
#     Node 11, Type 0, BuildingBlock: N691, # of connection points: 6
#     Node 12, Type 0, BuildingBlock: N691, # of connection points: 6
#     Node 13, Type 0, BuildingBlock: N691, # of connection points: 6
#     Node 14, Type 0, BuildingBlock: N691, # of connection points: 6
#     Node 15, Type 0, BuildingBlock: N691, # of connection points: 6
#     Node 16, Type 0, BuildingBlock: N691, # of connection points: 6
#     Node 17, Type 0, BuildingBlock: N691, # of connection points: 6
#     Node 18, Type 0, BuildingBlock: N691, # of connection points: 6
#     Node 19, Type 0, BuildingBlock: N691, # of connection points: 6
#     Node 20, Type 0, BuildingBlock: N691, # of connection points: 6
#     Node 21, Type 0, BuildingBlock: N691, # of connection points: 6
#     Node 22, Type 0, BuildingBlock: N691, # of connection points: 6
#     Node 23, Type 0, BuildingBlock: N691, # of connection points: 6
#     Edge 24, Type (0, 0), BuildingBlock: E127, # of connection points: 2
#     Edge 25, Type (0, 0), BuildingBlock: E127, # of connection points: 2
#     Edge 26, Type (0, 0), BuildingBlock: E127, # of connection points: 2
#     Edge 27, Type (0, 0), BuildingBlock: E127, # of connection points: 2
#     Edge 28, Type (0, 0), BuildingBlock: E127, # of connection points: 2
#     Edge 29, Type (0, 0), BuildingBlock: E127, # of connection points: 2
#     Edge 30, Type (0, 0), BuildingBlock: E127, # of connection points: 2
#     Edge 31, Type (0, 0), BuildingBlock: E127, # of connection points: 2
#     Edge 32, Type (0, 0), BuildingBlock: E127, # of connection points: 2
#     Edge 33, Type (0, 0), BuildingBlock: E127, # of connection points: 2
#     Edge 34, Type (0, 0), BuildingBlock: E127, # of connection points: 2
#     Edge 35, Type (0, 0), BuildingBlock: E127, # of connection points: 2
#     Edge 36, Type (0, 0), BuildingBlock: E127, # of connection points: 2
#     Edge 37, Type (0, 0), BuildingBlock: E127, # of connection points: 2
#     Edge 38, Type (0, 0), BuildingBlock: E127, # of connection points: 2
#     Edge 39, Type (0, 0), BuildingBlock: E127, # of connection points: 2
#     Edge 40, Type (0, 0), BuildingBlock: E127, # of connection points: 2
#     Edge 41, Type (0, 0), BuildingBlock: E127, # of connection points: 2
#     Edge 42, Type (0, 0), BuildingBlock: E127, # of connection points: 2
#     Edge 43, Type (0, 0), BuildingBlock: E127, # of connection points: 2
#     Edge 44, Type (0, 0), BuildingBlock: E127, # of connection points: 2
#     Edge 45, Type (0, 0), BuildingBlock: E127, # of connection points: 2
#     Edge 46, Type (0, 0), BuildingBlock: E127, # of connection points: 2
#     Edge 47, Type (0, 0), BuildingBlock: E127, # of connection points: 2
#     Edge 48, Type (0, 0), BuildingBlock: E127, # of connection points: 2
#     Edge 49, Type (0, 0), BuildingBlock: E127, # of connection points: 2
#     Edge 50, Type (0, 0), BuildingBlock: E127, # of connection points: 2
#     Edge 51, Type (0, 0), BuildingBlock: E127, # of connection points: 2
#     Edge 52, Type (0, 0), BuildingBlock: E127, # of connection points: 2
#     Edge 53, Type (0, 0), BuildingBlock: E127, # of connection points: 2
#     Edge 54, Type (0, 0), BuildingBlock: E127, # of connection points: 2
#     Edge 55, Type (0, 0), BuildingBlock: E127, # of connection points: 2
#     Edge 56, Type (0, 0), BuildingBlock: E127, # of connection points: 2
#     Edge 57, Type (0, 0), BuildingBlock: E127, # of connection points: 2
#     Edge 58, Type (0, 0), BuildingBlock: E127, # of connection points: 2
#     Edge 59, Type (0, 0), BuildingBlock: E127, # of connection points: 2
#     Edge 60, Type (0, 0), BuildingBlock: E127, # of connection points: 2
#     Edge 61, Type (0, 0), BuildingBlock: E127, # of connection points: 2
#     Edge 62, Type (0, 0), BuildingBlock: E127, # of connection points: 2
#     Edge 63, Type (0, 0), BuildingBlock: E127, # of connection points: 2
#     Edge 64, Type (0, 0), BuildingBlock: E127, # of connection points: 2
#     Edge 65, Type (0, 0), BuildingBlock: E127, # of connection points: 2
#     Edge 66, Type (0, 0), BuildingBlock: E127, # of connection points: 2
#     Edge 67, Type (0, 0), BuildingBlock: E127, # of connection points: 2
#     Edge 68, Type (0, 0), BuildingBlock: E127, # of connection points: 2
#     Edge 69, Type (0, 0), BuildingBlock: E127, # of connection points: 2
#     Edge 70, Type (0, 0), BuildingBlock: E127, # of connection points: 2
#     Edge 71, Type (0, 0), BuildingBlock: E127, # of connection points: 2
# Relax obj value: 0.049
# Max RMSD: 0.217
# Mean RMSD: 0.217
data_lta+N691+E127
_symmetry_space_group_name_H-M    P1
_symmetry_Int_Tables_number       1
_symmetry_cell_setting            triclinic
loop_
_symmetry_equiv_pos_as_xyz
'x, y, z'
_cell_length_a     49.132
_cell_length_b     49.132
_cell_length_c     49.132
_cell_angle_alpha  90.000
_cell_angle_beta   90.000
_cell_angle_gamma  90.000
loop_
_atom_site_label
_atom_site_type_symbol
_atom_site_fract_x
_atom_site_fract_y
_atom_site_fract_z
_atom_type_partial_charge
Tb0 Tb 0.90002 0.48121 0.63601 0.00000
C1 C 0.95210 0.49908 0.65548 0.00000
Tb2 Tb 0.81333 0.48994 0.65100 0.00000
C3 C 0.85533 0.53111 0.61560 0.00000
C4 C 0.84607 0.45673 0.60007 0.00000
C5 C 0.86610 0.51535 0.68706 0.00000
O6 O 0.78800 0.48740 0.69077 0.00000
O7 O 0.78236 0.52678 0.71252 0.00000
O8 O 0.82647 0.46607 0.61302 0.00000
O9 O 0.87054 0.45786 0.60729 0.00000
O10 O 0.84389 0.45854 0.66734 0.00000
C11 C 0.86270 0.44214 0.67186 0.00000
O12 O 0.83241 0.52353 0.62373 0.00000
O13 O 0.87685 0.51782 0.61802 0.00000
O14 O 0.84161 0.51431 0.68074 0.00000
O15 O 0.88535 0.50550 0.67376 0.00000
C16 C 0.78356 0.50148 0.71194 0.00000
O17 O 0.88688 0.44604 0.66497 0.00000
O18 O 0.93959 0.51089 0.63657 0.00000
O19 O 0.94063 0.48052 0.66875 0.00000
Tb20 Tb 0.51879 0.09998 0.36399 0.00000
C21 C 0.50092 0.04790 0.34452 0.00000
Tb22 Tb 0.51006 0.18667 0.34900 0.00000
C23 C 0.46889 0.14467 0.38440 0.00000
C24 C 0.54327 0.15393 0.39993 0.00000
C25 C 0.48465 0.13390 0.31294 0.00000
O26 O 0.51260 0.21200 0.30923 0.00000
O27 O 0.47322 0.21764 0.28748 0.00000
O28 O 0.53393 0.17353 0.38698 0.00000
O29 O 0.54214 0.12946 0.39271 0.00000
O30 O 0.54146 0.15611 0.33266 0.00000
C31 C 0.55786 0.13730 0.32814 0.00000
O32 O 0.47647 0.16759 0.37627 0.00000
O33 O 0.48218 0.12315 0.38198 0.00000
O34 O 0.48569 0.15839 0.31926 0.00000
O35 O 0.49450 0.11465 0.32624 0.00000
C36 C 0.49852 0.21644 0.28806 0.00000
O37 O 0.55396 0.11312 0.33503 0.00000
O38 O 0.48911 0.06041 0.36343 0.00000
O39 O 0.51948 0.05937 0.33125 0.00000
Tb40 Tb 0.90002 0.51879 0.36399 0.00000
C41 C 0.95210 0.50092 0.34452 0.00000
Tb42 Tb 0.81333 0.51006 0.34900 0.00000
C43 C 0.85533 0.46889 0.38440 0.00000
C44 C 0.84607 0.54327 0.39993 0.00000
C45 C 0.86610 0.48465 0.31294 0.00000
O46 O 0.78800 0.51260 0.30923 0.00000
O47 O 0.78236 0.47322 0.28748 0.00000
O48 O 0.82647 0.53393 0.38698 0.00000
O49 O 0.87054 0.54214 0.39271 0.00000
O50 O 0.84389 0.54146 0.33266 0.00000
C51 C 0.86270 0.55786 0.32814 0.00000
O52 O 0.83241 0.47647 0.37627 0.00000
O53 O 0.87685 0.48218 0.38198 0.00000
O54 O 0.84161 0.48569 0.31926 0.00000
O55 O 0.88535 0.49450 0.32624 0.00000
C56 C 0.78356 0.49852 0.28806 0.00000
O57 O 0.88688 0.55396 0.33503 0.00000
O58 O 0.93959 0.48911 0.36343 0.00000
O59 O 0.94063 0.51948 0.33125 0.00000
Tb60 Tb 0.48121 0.90002 0.36399 0.00000
C61 C 0.49908 0.95211 0.34452 0.00000
Tb62 Tb 0.48994 0.81333 0.34900 0.00000
C63 C 0.53111 0.85533 0.38440 0.00000
C64 C 0.45673 0.84607 0.39993 0.00000
C65 C 0.51535 0.86610 0.31294 0.00000
O66 O 0.48740 0.78800 0.30923 0.00000
O67 O 0.52678 0.78236 0.28748 0.00000
O68 O 0.46607 0.82647 0.38698 0.00000
O69 O 0.45786 0.87054 0.39271 0.00000
O70 O 0.45854 0.84389 0.33266 0.00000
C71 C 0.44214 0.86270 0.32814 0.00000
O72 O 0.52353 0.83241 0.37627 0.00000
O73 O 0.51782 0.87685 0.38198 0.00000
O74 O 0.51431 0.84161 0.31926 0.00000
O75 O 0.50550 0.88535 0.32624 0.00000
C76 C 0.50148 0.78356 0.28806 0.00000
O77 O 0.44604 0.88688 0.33503 0.00000
O78 O 0.51089 0.93959 0.36343 0.00000
O79 O 0.48052 0.94063 0.33125 0.00000
Tb80 Tb 0.09998 0.48121 0.36399 0.00000
C81 C 0.04789 0.49908 0.34452 0.00000
Tb82 Tb 0.18667 0.48994 0.34900 0.00000
C83 C 0.14467 0.53111 0.38440 0.00000
C84 C 0.15393 0.45673 0.39993 0.00000
C85 C 0.13390 0.51535 0.31294 0.00000
O86 O 0.21200 0.48740 0.30923 0.00000
O87 O 0.21764 0.52678 0.28748 0.00000
O88 O 0.17353 0.46607 0.38698 0.00000
O89 O 0.12946 0.45786 0.39271 0.00000
O90 O 0.15611 0.45854 0.33266 0.00000
C91 C 0.13730 0.44214 0.32814 0.00000
O92 O 0.16759 0.52353 0.37627 0.00000
O93 O 0.12315 0.51782 0.38198 0.00000
O94 O 0.15839 0.51431 0.31926 0.00000
O95 O 0.11465 0.50550 0.32624 0.00000
C96 C 0.21644 0.50148 0.28806 0.00000
O97 O 0.11312 0.44604 0.33503 0.00000
O98 O 0.06041 0.51089 0.36343 0.00000
O99 O 0.05937 0.48052 0.33125 0.00000
Tb100 Tb 0.63601 0.51879 0.90002 0.00000
C101 C 0.65548 0.50092 0.95210 0.00000
Tb102 Tb 0.65100 0.51006 0.81333 0.00000
C103 C 0.61560 0.46889 0.85533 0.00000
C104 C 0.60007 0.54327 0.84607 0.00000
C105 C 0.68706 0.48465 0.86610 0.00000
O106 O 0.69077 0.51260 0.78800 0.00000
O107 O 0.71252 0.47322 0.78236 0.00000
O108 O 0.61302 0.53393 0.82647 0.00000
O109 O 0.60729 0.54214 0.87054 0.00000
O110 O 0.66734 0.54146 0.84389 0.00000
C111 C 0.67186 0.55786 0.86270 0.00000
O112 O 0.62373 0.47647 0.83241 0.00000
O113 O 0.61802 0.48218 0.87685 0.00000
O114 O 0.68074 0.48569 0.84161 0.00000
O115 O 0.67376 0.49450 0.88535 0.00000
C116 C 0.71194 0.49852 0.78356 0.00000
O117 O 0.66497 0.55396 0.88688 0.00000
O118 O 0.63657 0.48911 0.93959 0.00000
O119 O 0.66875 0.51948 0.94063 0.00000
Tb120 Tb 0.63601 0.48121 0.09998 0.00000
C121 C 0.65548 0.49908 0.04790 0.00000
Tb122 Tb 0.65100 0.48994 0.18667 0.00000
C123 C 0.61560 0.53111 0.14467 0.00000
C124 C 0.60007 0.45673 0.15393 0.00000
C125 C 0.68706 0.51535 0.13390 0.00000
O126 O 0.69077 0.48740 0.21200 0.00000
O127 O 0.71252 0.52678 0.21764 0.00000
O128 O 0.61302 0.46607 0.17353 0.00000
O129 O 0.60729 0.45786 0.12946 0.00000
O130 O 0.66734 0.45854 0.15611 0.00000
C131 C 0.67186 0.44214 0.13730 0.00000
O132 O 0.62373 0.52353 0.16759 0.00000
O133 O 0.61802 0.51782 0.12315 0.00000
O134 O 0.68074 0.51431 0.15839 0.00000
O135 O 0.67376 0.50550 0.11465 0.00000
C136 C 0.71194 0.50148 0.21644 0.00000
O137 O 0.66497 0.44604 0.11312 0.00000
O138 O 0.63657 0.51089 0.06041 0.00000
O139 O 0.66875 0.48052 0.05937 0.00000
Tb140 Tb 0.51879 0.90002 0.63601 0.00000
C141 C 0.50092 0.95210 0.65548 0.00000
Tb142 Tb 0.51006 0.81333 0.65100 0.00000
C143 C 0.46889 0.85533 0.61560 0.00000
C144 C 0.54327 0.84607 0.60007 0.00000
C145 C 0.48465 0.86610 0.68706 0.00000
O146 O 0.51260 0.78800 0.69077 0.00000
O147 O 0.47322 0.78236 0.71252 0.00000
O148 O 0.53393 0.82647 0.61302 0.00000
O149 O 0.54214 0.87054 0.60729 0.00000
O150 O 0.54146 0.84389 0.66734 0.00000
C151 C 0.55786 0.86270 0.67186 0.00000
O152 O 0.47647 0.83241 0.62373 0.00000
O153 O 0.48218 0.87685 0.61802 0.00000
O154 O 0.48569 0.84161 0.68074 0.00000
O155 O 0.49450 0.88535 0.67376 0.00000
C156 C 0.49852 0.78356 0.71194 0.00000
O157 O 0.55396 0.88688 0.66497 0.00000
O158 O 0.48911 0.93959 0.63657 0.00000
O159 O 0.51948 0.94063 0.66875 0.00000
Tb160 Tb 0.36399 0.90002 0.51879 0.00000
C161 C 0.34452 0.95210 0.50092 0.00000
Tb162 Tb 0.34900 0.81333 0.51006 0.00000
C163 C 0.38440 0.85533 0.46889 0.00000
C164 C 0.39993 0.84607 0.54327 0.00000
C165 C 0.31294 0.86610 0.48465 0.00000
O166 O 0.30923 0.78800 0.51260 0.00000
O167 O 0.28748 0.78236 0.47322 0.00000
O168 O 0.38698 0.82647 0.53393 0.00000
O169 O 0.39271 0.87054 0.54214 0.00000
O170 O 0.33266 0.84389 0.54146 0.00000
C171 C 0.32814 0.86270 0.55786 0.00000
O172 O 0.37627 0.83241 0.47647 0.00000
O173 O 0.38198 0.87685 0.48218 0.00000
O174 O 0.31926 0.84161 0.48569 0.00000
O175 O 0.32624 0.88535 0.49450 0.00000
C176 C 0.28806 0.78356 0.49852 0.00000
O177 O 0.33503 0.88688 0.55396 0.00000
O178 O 0.36343 0.93959 0.48911 0.00000
O179 O 0.33125 0.94063 0.51948 0.00000
Tb180 Tb 0.09998 0.63601 0.48121 0.00000
C181 C 0.04790 0.65548 0.49908 0.00000
Tb182 Tb 0.18667 0.65100 0.48994 0.00000
C183 C 0.14467 0.61560 0.53111 0.00000
C184 C 0.15393 0.60007 0.45673 0.00000
C185 C 0.13390 0.68706 0.51535 0.00000
O186 O 0.21200 0.69077 0.48740 0.00000
O187 O 0.21764 0.71252 0.52678 0.00000
O188 O 0.17353 0.61302 0.46607 0.00000
O189 O 0.12946 0.60729 0.45786 0.00000
O190 O 0.15611 0.66734 0.45854 0.00000
C191 C 0.13730 0.67186 0.44214 0.00000
O192 O 0.16759 0.62373 0.52353 0.00000
O193 O 0.12315 0.61802 0.51782 0.00000
O194 O 0.15839 0.68074 0.51431 0.00000
O195 O 0.11465 0.67376 0.50550 0.00000
C196 C 0.21644 0.71194 0.50148 0.00000
O197 O 0.11312 0.66497 0.44604 0.00000
O198 O 0.06041 0.63657 0.51089 0.00000
O199 O 0.05937 0.66875 0.48052 0.00000
Tb200 Tb 0.63601 0.09998 0.51879 0.00000
C201 C 0.65548 0.04790 0.50092 0.00000
Tb202 Tb 0.65100 0.18667 0.51006 0.00000
C203 C 0.61560 0.14467 0.46889 0.00000
C204 C 0.60007 0.15393 0.54327 0.00000
C205 C 0.68706 0.13390 0.48465 0.00000
O206 O 0.69077 0.21200 0.51260 0.00000
O207 O 0.71252 0.21764 0.47322 0.00000
O208 O 0.61302 0.17353 0.53393 0.00000
O209 O 0.60729 0.12946 0.54214 0.00000
O210 O 0.66734 0.15611 0.54146 0.00000
C211 C 0.67186 0.13730 0.55786 0.00000
O212 O 0.62373 0.16759 0.47647 0.00000
O213 O 0.61802 0.12315 0.48218 0.00000
O214 O 0.68074 0.15839 0.48569 0.00000
O215 O 0.67376 0.11465 0.49450 0.00000
C216 C 0.71194 0.21644 0.49852 0.00000
O217 O 0.66497 0.11312 0.55396 0.00000
O218 O 0.63657 0.06041 0.48911 0.00000
O219 O 0.66875 0.05937 0.51948 0.00000
Tb220 Tb 0.90002 0.63601 0.51879 0.00000
C221 C 0.95211 0.65548 0.50092 0.00000
Tb222 Tb 0.81333 0.65100 0.51006 0.00000
C223 C 0.85533 0.61560 0.46889 0.00000
C224 C 0.84607 0.60007 0.54327 0.00000
C225 C 0.86610 0.68706 0.48465 0.00000
O226 O 0.78800 0.69077 0.51260 0.00000
O227 O 0.78236 0.71252 0.47322 0.00000
O228 O 0.82647 0.61302 0.53393 0.00000
O229 O 0.87054 0.60729 0.54214 0.00000
O230 O 0.84389 0.66734 0.54146 0.00000
C231 C 0.86270 0.67186 0.55786 0.00000
O232 O 0.83241 0.62373 0.47647 0.00000
O233 O 0.87685 0.61802 0.48218 0.00000
O234 O 0.84161 0.68074 0.48569 0.00000
O235 O 0.88535 0.67376 0.49450 0.00000
C236 C 0.78356 0.71194 0.49852 0.00000
O237 O 0.88688 0.66497 0.55396 0.00000
O238 O 0.93959 0.63657 0.48911 0.00000
O239 O 0.94063 0.66875 0.51948 0.00000
Tb240 Tb 0.09998 0.36399 0.51879 0.00000
C241 C 0.04790 0.34452 0.50092 0.00000
Tb242 Tb 0.18667 0.34900 0.51006 0.00000
C243 C 0.14467 0.38440 0.46889 0.00000
C244 C 0.15393 0.39993 0.54327 0.00000
C245 C 0.13390 0.31294 0.48465 0.00000
O246 O 0.21200 0.30923 0.51260 0.00000
O247 O 0.21764 0.28748 0.47322 0.00000
O248 O 0.17353 0.38698 0.53393 0.00000
O249 O 0.12946 0.39271 0.54214 0.00000
O250 O 0.15611 0.33266 0.54146 0.00000
C251 C 0.13730 0.32814 0.55786 0.00000
O252 O 0.16759 0.37627 0.47647 0.00000
O253 O 0.12315 0.38198 0.48218 0.00000
O254 O 0.15839 0.31926 0.48569 0.00000
O255 O 0.11465 0.32624 0.49450 0.00000
C256 C 0.21644 0.28806 0.49852 0.00000
O257 O 0.11312 0.33503 0.55396 0.00000
O258 O 0.06041 0.36343 0.48911 0.00000
O259 O 0.05937 0.33125 0.51948 0.00000
Tb260 Tb 0.36399 0.09998 0.48121 0.00000
C261 C 0.34452 0.04790 0.49908 0.00000
Tb262 Tb 0.34900 0.18667 0.48994 0.00000
C263 C 0.38440 0.14467 0.53111 0.00000
C264 C 0.39993 0.15393 0.45673 0.00000
C265 C 0.31294 0.13390 0.51535 0.00000
O266 O 0.30923 0.21200 0.48740 0.00000
O267 O 0.28748 0.21764 0.52678 0.00000
O268 O 0.38698 0.17353 0.46607 0.00000
O269 O 0.39271 0.12946 0.45786 0.00000
O270 O 0.33266 0.15611 0.45854 0.00000
C271 C 0.32814 0.13730 0.44214 0.00000
O272 O 0.37627 0.16759 0.52353 0.00000
O273 O 0.38198 0.12315 0.51782 0.00000
O274 O 0.31926 0.15839 0.51431 0.00000
O275 O 0.32624 0.11465 0.50550 0.00000
C276 C 0.28806 0.21644 0.50148 0.00000
O277 O 0.33503 0.11312 0.44604 0.00000
O278 O 0.36343 0.06041 0.51089 0.00000
O279 O 0.33125 0.05937 0.48052 0.00000
Tb280 Tb 0.90002 0.36399 0.48121 0.00000
C281 C 0.95210 0.34452 0.49908 0.00000
Tb282 Tb 0.81333 0.34900 0.48994 0.00000
C283 C 0.85533 0.38440 0.53111 0.00000
C284 C 0.84607 0.39993 0.45673 0.00000
C285 C 0.86610 0.31294 0.51535 0.00000
O286 O 0.78800 0.30923 0.48740 0.00000
O287 O 0.78236 0.28748 0.52678 0.00000
O288 O 0.82647 0.38698 0.46607 0.00000
O289 O 0.87054 0.39271 0.45786 0.00000
O290 O 0.84389 0.33266 0.45854 0.00000
C291 C 0.86270 0.32814 0.44214 0.00000
O292 O 0.83241 0.37627 0.52353 0.00000
O293 O 0.87685 0.38198 0.51782 0.00000
O294 O 0.84161 0.31926 0.51431 0.00000
O295 O 0.88535 0.32624 0.50550 0.00000
C296 C 0.78356 0.28806 0.50148 0.00000
O297 O 0.88688 0.33503 0.44604 0.00000
O298 O 0.93959 0.36343 0.51089 0.00000
O299 O 0.94063 0.33125 0.48052 0.00000
Tb300 Tb 0.48121 0.63601 0.90002 0.00000
C301 C 0.49908 0.65548 0.95210 0.00000
Tb302 Tb 0.48994 0.65100 0.81333 0.00000
C303 C 0.53111 0.61560 0.85533 0.00000
C304 C 0.45673 0.60007 0.84607 0.00000
C305 C 0.51535 0.68706 0.86610 0.00000
O306 O 0.48740 0.69077 0.78800 0.00000
O307 O 0.52678 0.71252 0.78236 0.00000
O308 O 0.46607 0.61302 0.82647 0.00000
O309 O 0.45786 0.60729 0.87054 0.00000
O310 O 0.45854 0.66734 0.84389 0.00000
C311 C 0.44214 0.67186 0.86270 0.00000
O312 O 0.52353 0.62373 0.83241 0.00000
O313 O 0.51782 0.61802 0.87685 0.00000
O314 O 0.51431 0.68074 0.84161 0.00000
O315 O 0.50550 0.67376 0.88535 0.00000
C316 C 0.50148 0.71194 0.78356 0.00000
O317 O 0.44604 0.66497 0.88688 0.00000
O318 O 0.51089 0.63657 0.93959 0.00000
O319 O 0.48052 0.66875 0.94063 0.00000
Tb320 Tb 0.51879 0.63601 0.09998 0.00000
C321 C 0.50092 0.65548 0.04790 0.00000
Tb322 Tb 0.51006 0.65100 0.18667 0.00000
C323 C 0.46889 0.61560 0.14467 0.00000
C324 C 0.54327 0.60007 0.15393 0.00000
C325 C 0.48465 0.68706 0.13390 0.00000
O326 O 0.51260 0.69077 0.21200 0.00000
O327 O 0.47322 0.71252 0.21764 0.00000
O328 O 0.53393 0.61302 0.17353 0.00000
O329 O 0.54214 0.60729 0.12946 0.00000
O330 O 0.54146 0.66734 0.15611 0.00000
C331 C 0.55786 0.67186 0.13730 0.00000
O332 O 0.47647 0.62373 0.16759 0.00000
O333 O 0.48218 0.61802 0.12315 0.00000
O334 O 0.48569 0.68074 0.15839 0.00000
O335 O 0.49450 0.67376 0.11465 0.00000
C336 C 0.49852 0.71194 0.21644 0.00000
O337 O 0.55396 0.66497 0.11312 0.00000
O338 O 0.48911 0.63657 0.06041 0.00000
O339 O 0.51948 0.66875 0.05937 0.00000
Tb340 Tb 0.36399 0.51879 0.09998 0.00000
C341 C 0.34452 0.50092 0.04789 0.00000
Tb342 Tb 0.34900 0.51006 0.18667 0.00000
C343 C 0.38440 0.46889 0.14467 0.00000
C344 C 0.39993 0.54327 0.15393 0.00000
C345 C 0.31294 0.48465 0.13390 0.00000
O346 O 0.30923 0.51260 0.21200 0.00000
O347 O 0.28748 0.47322 0.21764 0.00000
O348 O 0.38698 0.53393 0.17353 0.00000
O349 O 0.39271 0.54214 0.12946 0.00000
O350 O 0.33266 0.54146 0.15611 0.00000
C351 C 0.32814 0.55786 0.13730 0.00000
O352 O 0.37627 0.47647 0.16759 0.00000
O353 O 0.38198 0.48218 0.12315 0.00000
O354 O 0.31926 0.48569 0.15839 0.00000
O355 O 0.32624 0.49450 0.11465 0.00000
C356 C 0.28806 0.49852 0.21644 0.00000
O357 O 0.33503 0.55396 0.11312 0.00000
O358 O 0.36343 0.48911 0.06041 0.00000
O359 O 0.33125 0.51948 0.05937 0.00000
Tb360 Tb 0.48121 0.36399 0.09998 0.00000
C361 C 0.49908 0.34452 0.04790 0.00000
Tb362 Tb 0.48994 0.34900 0.18667 0.00000
C363 C 0.53111 0.38440 0.14467 0.00000
C364 C 0.45673 0.39993 0.15393 0.00000
C365 C 0.51535 0.31294 0.13390 0.00000
O366 O 0.48740 0.30923 0.21200 0.00000
O367 O 0.52678 0.28748 0.21764 0.00000
O368 O 0.46607 0.38698 0.17353 0.00000
O369 O 0.45786 0.39271 0.12946 0.00000
O370 O 0.45854 0.33266 0.15611 0.00000
C371 C 0.44214 0.32814 0.13730 0.00000
O372 O 0.52353 0.37627 0.16759 0.00000
O373 O 0.51782 0.38198 0.12315 0.00000
O374 O 0.51431 0.31926 0.15839 0.00000
O375 O 0.50550 0.32624 0.11465 0.00000
C376 C 0.50148 0.28806 0.21644 0.00000
O377 O 0.44604 0.33503 0.11312 0.00000
O378 O 0.51089 0.36343 0.06041 0.00000
O379 O 0.48052 0.33125 0.05937 0.00000
Tb380 Tb 0.36399 0.48121 0.90002 0.00000
C381 C 0.34452 0.49908 0.95211 0.00000
Tb382 Tb 0.34900 0.48994 0.81333 0.00000
C383 C 0.38440 0.53111 0.85533 0.00000
C384 C 0.39993 0.45673 0.84607 0.00000
C385 C 0.31294 0.51535 0.86610 0.00000
O386 O 0.30923 0.48740 0.78800 0.00000
O387 O 0.28748 0.52678 0.78236 0.00000
O388 O 0.38698 0.46607 0.82647 0.00000
O389 O 0.39271 0.45786 0.87054 0.00000
O390 O 0.33266 0.45854 0.84389 0.00000
C391 C 0.32814 0.44214 0.86270 0.00000
O392 O 0.37627 0.52353 0.83241 0.00000
O393 O 0.38198 0.51782 0.87685 0.00000
O394 O 0.31926 0.51431 0.84161 0.00000
O395 O 0.32624 0.50550 0.88535 0.00000
C396 C 0.28806 0.50148 0.78356 0.00000
O397 O 0.33503 0.44604 0.88688 0.00000
O398 O 0.36343 0.51089 0.93959 0.00000
O399 O 0.33125 0.48052 0.94063 0.00000
Tb400 Tb 0.51879 0.36399 0.90002 0.00000
C401 C 0.50092 0.34452 0.95210 0.00000
Tb402 Tb 0.51006 0.34900 0.81333 0.00000
C403 C 0.46889 0.38440 0.85533 0.00000
C404 C 0.54327 0.39993 0.84607 0.00000
C405 C 0.48465 0.31294 0.86610 0.00000
O406 O 0.51260 0.30923 0.78800 0.00000
O407 O 0.47322 0.28748 0.78236 0.00000
O408 O 0.53393 0.38698 0.82647 0.00000
O409 O 0.54214 0.39271 0.87054 0.00000
O410 O 0.54146 0.33266 0.84389 0.00000
C411 C 0.55786 0.32814 0.86270 0.00000
O412 O 0.47647 0.37627 0.83241 0.00000
O413 O 0.48218 0.38198 0.87685 0.00000
O414 O 0.48569 0.31926 0.84161 0.00000
O415 O 0.49450 0.32624 0.88535 0.00000
C416 C 0.49852 0.28806 0.78356 0.00000
O417 O 0.55396 0.33503 0.88688 0.00000
O418 O 0.48911 0.36343 0.93959 0.00000
O419 O 0.51948 0.33125 0.94063 0.00000
Tb420 Tb 0.63601 0.90002 0.48121 0.00000
C421 C 0.65548 0.95210 0.49908 0.00000
Tb422 Tb 0.65100 0.81333 0.48994 0.00000
C423 C 0.61560 0.85533 0.53111 0.00000
C424 C 0.60007 0.84607 0.45673 0.00000
C425 C 0.68706 0.86610 0.51535 0.00000
O426 O 0.69077 0.78800 0.48740 0.00000
O427 O 0.71252 0.78236 0.52678 0.00000
O428 O 0.61302 0.82647 0.46607 0.00000
O429 O 0.60729 0.87054 0.45786 0.00000
O430 O 0.66734 0.84389 0.45854 0.00000
C431 C 0.67186 0.86270 0.44214 0.00000
O432 O 0.62373 0.83241 0.52353 0.00000
O433 O 0.61802 0.87685 0.51782 0.00000
O434 O 0.68074 0.84161 0.51431 0.00000
O435 O 0.67376 0.88535 0.50550 0.00000
C436 C 0.71194 0.78356 0.50148 0.00000
O437 O 0.66497 0.88688 0.44604 0.00000
O438 O 0.63657 0.93959 0.51089 0.00000
O439 O 0.66875 0.94063 0.48052 0.00000
Tb440 Tb 0.09998 0.51879 0.63601 0.00000
C441 C 0.04790 0.50092 0.65548 0.00000
Tb442 Tb 0.18667 0.51006 0.65100 0.00000
C443 C 0.14467 0.46889 0.61560 0.00000
C444 C 0.15393 0.54327 0.60007 0.00000
C445 C 0.13390 0.48465 0.68706 0.00000
O446 O 0.21200 0.51260 0.69077 0.00000
O447 O 0.21764 0.47322 0.71252 0.00000
O448 O 0.17353 0.53393 0.61302 0.00000
O449 O 0.12946 0.54214 0.60729 0.00000
O450 O 0.15611 0.54146 0.66734 0.00000
C451 C 0.13730 0.55786 0.67186 0.00000
O452 O 0.16759 0.47647 0.62373 0.00000
O453 O 0.12315 0.48218 0.61802 0.00000
O454 O 0.15839 0.48569 0.68074 0.00000
O455 O 0.11465 0.49450 0.67376 0.00000
C456 C 0.21644 0.49852 0.71194 0.00000
O457 O 0.11312 0.55396 0.66497 0.00000
O458 O 0.06041 0.48911 0.63657 0.00000
O459 O 0.05937 0.51948 0.66875 0.00000
Tb460 Tb 0.48121 0.09998 0.63601 0.00000
C461 C 0.49908 0.04790 0.65548 0.00000
Tb462 Tb 0.48994 0.18667 0.65100 0.00000
C463 C 0.53111 0.14467 0.61560 0.00000
C464 C 0.45673 0.15393 0.60007 0.00000
C465 C 0.51535 0.13390 0.68706 0.00000
O466 O 0.48740 0.21200 0.69077 0.00000
O467 O 0.52678 0.21764 0.71252 0.00000
O468 O 0.46607 0.17353 0.61302 0.00000
O469 O 0.45786 0.12946 0.60729 0.00000
O470 O 0.45854 0.15611 0.66734 0.00000
C471 C 0.44214 0.13730 0.67186 0.00000
O472 O 0.52353 0.16759 0.62373 0.00000
O473 O 0.51782 0.12315 0.61802 0.00000
O474 O 0.51431 0.15839 0.68074 0.00000
O475 O 0.50550 0.11465 0.67376 0.00000
C476 C 0.50148 0.21644 0.71194 0.00000
O477 O 0.44604 0.11312 0.66497 0.00000
O478 O 0.51089 0.06041 0.63657 0.00000
O479 O 0.48052 0.05937 0.66875 0.00000
C480 C 0.86520 0.39476 0.55215 0.00000
H481 H 0.83682 0.41939 0.59343 0.00000
H482 H 0.83440 0.43624 0.56654 0.00000
H483 H 0.88259 0.41252 0.58635 0.00000
H484 H 0.88245 0.43228 0.56126 0.00000
H485 H 0.88212 0.38660 0.54603 0.00000
H486 H 0.85523 0.38107 0.56234 0.00000
C487 C 0.84622 0.43233 0.58187 0.00000
C488 C 0.87175 0.41894 0.57116 0.00000
C489 C 0.54878 0.15677 0.42338 0.00000
H490 H 0.59517 0.16974 0.45161 0.00000
H491 H 0.60061 0.14562 0.43157 0.00000
H492 H 0.55436 0.15101 0.46490 0.00000
H493 H 0.56023 0.12445 0.44814 0.00000
H494 H 0.52950 0.15254 0.42394 0.00000
H495 H 0.55068 0.17643 0.42421 0.00000
C496 C 0.59292 0.15029 0.44916 0.00000
C497 C 0.56282 0.14405 0.44848 0.00000
C498 C 0.84641 0.59086 0.46450 0.00000
H499 H 0.86111 0.54626 0.43431 0.00000
H500 H 0.86830 0.57313 0.41884 0.00000
H501 H 0.81943 0.56338 0.44705 0.00000
H502 H 0.82368 0.58930 0.42887 0.00000
H503 H 0.83245 0.60010 0.47497 0.00000
H504 H 0.85495 0.57748 0.47628 0.00000
C505 C 0.85354 0.56077 0.42328 0.00000
C506 C 0.83294 0.57605 0.44024 0.00000
C507 C 0.39365 0.84660 0.45006 0.00000
H508 H 0.44130 0.82686 0.42868 0.00000
H509 H 0.44464 0.85731 0.43729 0.00000
H510 H 0.39944 0.83563 0.40964 0.00000
H511 H 0.40308 0.86703 0.41425 0.00000
H512 H 0.37413 0.84882 0.44815 0.00000
H513 H 0.39701 0.82845 0.45715 0.00000
C514 C 0.43760 0.84544 0.42317 0.00000
C515 C 0.40711 0.84919 0.42175 0.00000
C516 C 0.13055 0.39917 0.45122 0.00000
H517 H 0.15167 0.41767 0.40297 0.00000
H518 H 0.16795 0.42953 0.42761 0.00000
H519 H 0.11091 0.42554 0.42464 0.00000
H520 H 0.12564 0.44108 0.44833 0.00000
H521 H 0.11459 0.39641 0.46252 0.00000
H522 H 0.13146 0.38424 0.43830 0.00000
C523 C 0.15142 0.43155 0.41700 0.00000
C524 C 0.12740 0.42620 0.43545 0.00000
C525 C 0.54996 0.60636 0.84663 0.00000
H526 H 0.57135 0.55875 0.82683 0.00000
H527 H 0.56269 0.55535 0.85727 0.00000
H528 H 0.59040 0.60059 0.83572 0.00000
H529 H 0.58573 0.59689 0.86711 0.00000
H530 H 0.55188 0.62588 0.84889 0.00000
H531 H 0.54290 0.60304 0.82846 0.00000
C532 C 0.57684 0.56241 0.84543 0.00000
C533 C 0.57826 0.59290 0.84925 0.00000
C534 C 0.55338 0.39167 0.14425 0.00000
H535 H 0.58308 0.42853 0.17385 0.00000
H536 H 0.56158 0.44343 0.15571 0.00000
H537 H 0.59450 0.39978 0.13870 0.00000
H538 H 0.57613 0.41615 0.11833 0.00000
H539 H 0.55338 0.37604 0.13218 0.00000
H540 H 0.55553 0.38503 0.16274 0.00000
C541 C 0.57932 0.43475 0.15550 0.00000
C542 C 0.57779 0.41016 0.13709 0.00000
C543 C 0.57777 0.83972 0.44934 0.00000
H544 H 0.55334 0.83168 0.39978 0.00000
H545 H 0.56837 0.85972 0.40046 0.00000
H546 H 0.53602 0.83864 0.44273 0.00000
H547 H 0.54736 0.86849 0.44329 0.00000
H548 H 0.57609 0.83965 0.46901 0.00000
H549 H 0.58081 0.82110 0.44346 0.00000
C550 C 0.55191 0.85034 0.40605 0.00000
C551 C 0.55089 0.85017 0.43678 0.00000
C552 C 0.13792 0.58350 0.44735 0.00000
H553 H 0.14628 0.53245 0.42635 0.00000
H554 H 0.16466 0.55381 0.41155 0.00000
H555 H 0.10955 0.56146 0.42506 0.00000
H556 H 0.12564 0.58224 0.40690 0.00000
H557 H 0.12505 0.59753 0.45255 0.00000
H558 H 0.13889 0.57040 0.46212 0.00000
C559 C 0.14634 0.54650 0.41248 0.00000
C560 C 0.12743 0.56902 0.42148 0.00000
C561 C 0.44666 0.85544 0.60835 0.00000
H562 H 0.41730 0.82599 0.57110 0.00000
H563 H 0.43848 0.84468 0.55643 0.00000
H564 H 0.40544 0.86050 0.60043 0.00000
H565 H 0.42346 0.88140 0.58434 0.00000
H566 H 0.44653 0.86725 0.62417 0.00000
H567 H 0.44481 0.83681 0.61469 0.00000
C568 C 0.42077 0.84449 0.56516 0.00000
C569 C 0.42209 0.86252 0.59004 0.00000
C570 C 0.13716 0.55424 0.58511 0.00000
H571 H 0.14215 0.57336 0.53290 0.00000
H572 H 0.16444 0.58613 0.55169 0.00000
H573 H 0.10933 0.57948 0.56573 0.00000
H574 H 0.12969 0.59586 0.58410 0.00000
H575 H 0.12542 0.55083 0.60062 0.00000
H576 H 0.13490 0.53928 0.57240 0.00000
C577 C 0.14543 0.58731 0.54647 0.00000
C578 C 0.12824 0.58098 0.57117 0.00000
C579 C 0.41187 0.13584 0.53604 0.00000
H580 H 0.43417 0.12566 0.58620 0.00000
H581 H 0.41692 0.15239 0.58682 0.00000
H582 H 0.45314 0.13749 0.54506 0.00000
H583 H 0.43941 0.16631 0.54615 0.00000
H584 H 0.41461 0.13753 0.51656 0.00000
H585 H 0.41006 0.11661 0.54025 0.00000
C586 C 0.43437 0.14483 0.58152 0.00000
C587 C 0.43707 0.14728 0.55098 0.00000
C588 C 0.42224 0.16026 0.44935 0.00000
H589 H 0.44669 0.16833 0.39980 0.00000
H590 H 0.43163 0.14030 0.40045 0.00000
H591 H 0.46399 0.16132 0.44275 0.00000
H592 H 0.45262 0.13147 0.44328 0.00000
H593 H 0.42392 0.16032 0.46902 0.00000
H594 H 0.41921 0.17890 0.44349 0.00000
C595 C 0.44809 0.14966 0.40605 0.00000
C596 C 0.44911 0.14981 0.43678 0.00000
C597 C 0.60810 0.85152 0.55243 0.00000
H598 H 0.56610 0.82495 0.57787 0.00000
H599 H 0.55522 0.84984 0.56128 0.00000
H600 H 0.60203 0.85012 0.59425 0.00000
H601 H 0.59025 0.87681 0.58124 0.00000
H602 H 0.62600 0.85974 0.55386 0.00000
H603 H 0.61055 0.83200 0.55050 0.00000
C604 C 0.56400 0.84458 0.57817 0.00000
C605 C 0.59201 0.85727 0.57883 0.00000
C606 C 0.43567 0.59390 0.85942 0.00000
H607 H 0.41838 0.54400 0.87752 0.00000
H608 H 0.42540 0.54286 0.84650 0.00000
H609 H 0.39637 0.58499 0.87221 0.00000
H610 H 0.39937 0.58335 0.84045 0.00000
H611 H 0.43246 0.61336 0.85844 0.00000
H612 H 0.44398 0.59003 0.87694 0.00000
C613 C 0.41159 0.54835 0.85950 0.00000
C614 C 0.40812 0.57884 0.85759 0.00000
C615 C 0.60816 0.55254 0.14812 0.00000
H616 H 0.56660 0.57834 0.17503 0.00000
H617 H 0.55529 0.56126 0.15067 0.00000
H618 H 0.60197 0.59436 0.14887 0.00000
H619 H 0.58972 0.58084 0.12266 0.00000
H620 H 0.62589 0.55389 0.13952 0.00000
H621 H 0.61100 0.55098 0.16762 0.00000
C622 C 0.56412 0.57827 0.15545 0.00000
C623 C 0.59186 0.57878 0.14220 0.00000
C624 C 0.46271 0.58910 0.13387 0.00000
H625 H 0.41108 0.56900 0.12701 0.00000
H626 H 0.41407 0.58272 0.15557 0.00000
H627 H 0.45274 0.54809 0.13141 0.00000
H628 H 0.45540 0.55805 0.16165 0.00000
H629 H 0.48217 0.58589 0.13289 0.00000
H630 H 0.45636 0.59340 0.11565 0.00000
C631 C 0.41795 0.56629 0.14531 0.00000
C632 C 0.44847 0.56287 0.14377 0.00000
C633 C 0.41134 0.46327 0.13468 0.00000
H634 H 0.43233 0.41220 0.12635 0.00000
H635 H 0.41708 0.41365 0.15424 0.00000
H636 H 0.45254 0.45376 0.13394 0.00000
H637 H 0.44094 0.45481 0.16368 0.00000
H638 H 0.41440 0.48278 0.13483 0.00000
H639 H 0.40809 0.45781 0.11596 0.00000
C640 C 0.43398 0.41816 0.14509 0.00000
C641 C 0.43716 0.44875 0.14525 0.00000
C642 C 0.42106 0.44772 0.83777 0.00000
H643 H 0.44347 0.39674 0.83374 0.00000
H644 H 0.43227 0.40177 0.86310 0.00000
H645 H 0.46220 0.43963 0.83229 0.00000
H646 H 0.45489 0.44468 0.86298 0.00000
H647 H 0.42302 0.46713 0.83471 0.00000
H648 H 0.41551 0.43943 0.82071 0.00000
C649 C 0.44743 0.40546 0.85099 0.00000
C650 C 0.44889 0.43583 0.84635 0.00000
C651 C 0.54735 0.42343 0.85059 0.00000
H652 H 0.58557 0.46008 0.83290 0.00000
H653 H 0.59960 0.43415 0.84490 0.00000
H654 H 0.55479 0.46116 0.86817 0.00000
H655 H 0.57015 0.43757 0.88329 0.00000
H656 H 0.53106 0.42009 0.86124 0.00000
H657 H 0.54175 0.43086 0.83315 0.00000
C658 C 0.59078 0.45115 0.84971 0.00000
C659 C 0.56520 0.44460 0.86549 0.00000
C660 C 0.86291 0.41466 0.44552 0.00000
H661 H 0.85843 0.46701 0.42664 0.00000
H662 H 0.83563 0.44860 0.41420 0.00000
H663 H 0.89062 0.43369 0.41987 0.00000
H664 H 0.86971 0.41568 0.40379 0.00000
H665 H 0.87447 0.39896 0.44870 0.00000
H666 H 0.86563 0.42729 0.46048 0.00000
C667 C 0.85470 0.45353 0.41271 0.00000
C668 C 0.87161 0.42854 0.41868 0.00000
C669 C 0.14236 0.42081 0.54885 0.00000
H670 H 0.15822 0.46600 0.57755 0.00000
H671 H 0.16218 0.43967 0.59499 0.00000
H672 H 0.11638 0.45119 0.56262 0.00000
H673 H 0.11730 0.42619 0.58249 0.00000
H674 H 0.12853 0.41199 0.53787 0.00000
H675 H 0.15273 0.43279 0.53703 0.00000
C676 C 0.14878 0.45277 0.58876 0.00000
C677 C 0.12835 0.43801 0.57114 0.00000
C678 C 0.59502 0.14276 0.56593 0.00000
H679 H 0.54741 0.12065 0.58494 0.00000
H680 H 0.54237 0.14987 0.57339 0.00000
H681 H 0.58651 0.13468 0.60655 0.00000
H682 H 0.58073 0.16514 0.59886 0.00000
H683 H 0.61404 0.14687 0.56926 0.00000
H684 H 0.59382 0.12387 0.56024 0.00000
C685 C 0.54906 0.13988 0.58906 0.00000
C686 C 0.57888 0.14645 0.59267 0.00000
C687 C 0.87048 0.54651 0.59820 0.00000
H688 H 0.85457 0.59736 0.58151 0.00000
H689 H 0.83257 0.57566 0.57390 0.00000
H690 H 0.88908 0.56894 0.56756 0.00000
H691 H 0.86805 0.54785 0.55600 0.00000
H692 H 0.88459 0.53270 0.59861 0.00000
H693 H 0.87445 0.55963 0.61244 0.00000
C694 C 0.84997 0.58327 0.56848 0.00000
C695 C 0.87119 0.56109 0.57034 0.00000
C696 C 0.02766 0.48736 0.67074 0.00000
H697 H 0.97541 0.47919 0.65283 0.00000
H698 H 0.98771 0.50553 0.63989 0.00000
H699 H 0.99301 0.49021 0.69480 0.00000
H700 H 0.00264 0.51873 0.68411 0.00000
H701 H 0.04010 0.48853 0.68602 0.00000
H702 H 0.02510 0.46823 0.66648 0.00000
C703 C 0.97942 0.49821 0.65625 0.00000
C704 C 0.99990 0.49981 0.67904 0.00000
C705 C 0.51795 0.97322 0.34699 0.00000
H706 H 0.49536 0.02038 0.36655 0.00000
H707 H 0.47907 0.00974 0.34137 0.00000
H708 H 0.53616 0.01135 0.34542 0.00000
H709 H 0.52126 0.00397 0.31814 0.00000
H710 H 0.53419 0.96365 0.34109 0.00000
H711 H 0.51737 0.97252 0.36674 0.00000
C712 C 0.49533 0.01952 0.34683 0.00000
C713 C 0.51983 0.00325 0.33785 0.00000
C714 C 0.02706 0.51628 0.34996 0.00000
H715 H 0.98058 0.48957 0.36556 0.00000
H716 H 0.99017 0.47959 0.33690 0.00000
H717 H 0.98898 0.53419 0.35410 0.00000
H718 H 0.99524 0.52603 0.32385 0.00000
H719 H 0.03646 0.53349 0.34761 0.00000
H720 H 0.02851 0.51116 0.36900 0.00000
C721 C 0.98069 0.49411 0.34635 0.00000
C722 C 0.99671 0.52009 0.34265 0.00000
C723 C 0.67185 0.51065 0.02799 0.00000
H724 H 0.65680 0.52142 0.97531 0.00000
H725 H 0.63958 0.49745 0.98722 0.00000
H726 H 0.69606 0.50399 0.99397 0.00000
H727 H 0.68079 0.47752 0.00326 0.00000
H728 H 0.68643 0.50712 0.04082 0.00000
H729 H 0.67070 0.53020 0.02536 0.00000
C730 C 0.65709 0.50210 0.97936 0.00000
C731 C 0.67881 0.49699 0.00010 0.00000
C732 C 0.49569 0.03046 0.64747 0.00000
H733 H 0.47314 0.98330 0.66707 0.00000
H734 H 0.50327 0.98626 0.67690 0.00000
H735 H 0.48467 0.99717 0.62386 0.00000
H736 H 0.51574 0.99694 0.63126 0.00000
H737 H 0.49914 0.04214 0.63193 0.00000
H738 H 0.47732 0.03410 0.65380 0.00000
C739 C 0.49197 0.98104 0.66157 0.00000
C740 C 0.49764 0.00010 0.63838 0.00000
C741 C 0.32867 0.97218 0.48834 0.00000
H742 H 0.34518 0.02465 0.47881 0.00000
H743 H 0.36033 0.01253 0.50404 0.00000
H744 H 0.30445 0.00651 0.49310 0.00000
H745 H 0.31748 0.99703 0.52068 0.00000
H746 H 0.31368 0.95954 0.49071 0.00000
H747 H 0.33137 0.97479 0.46893 0.00000
C748 C 0.34334 0.02061 0.49804 0.00000
C749 C 0.32101 0.99990 0.50142 0.00000
C750 C 0.96869 0.65717 0.50942 0.00000
H751 H 0.01879 0.68134 0.51425 0.00000
H752 H 0.01558 0.66779 0.48563 0.00000
H753 H 0.99990 0.64419 0.53526 0.00000
H754 H 0.99990 0.62789 0.50780 0.00000
H755 H 0.95516 0.64506 0.51717 0.00000
H756 H 0.96666 0.67483 0.51808 0.00000
C757 C 0.01952 0.66412 0.50463 0.00000
C758 C 0.99737 0.64591 0.51572 0.00000
C759 C 0.67025 0.02755 0.48667 0.00000
H760 H 0.65140 0.97548 0.47956 0.00000
H761 H 0.64012 0.98789 0.50661 0.00000
H762 H 0.69410 0.99267 0.48813 0.00000
H763 H 0.68518 0.00239 0.51722 0.00000
H764 H 0.68570 0.03984 0.48695 0.00000
H765 H 0.66486 0.02503 0.46782 0.00000
C766 C 0.65595 0.97944 0.49836 0.00000
C767 C 0.67899 0.99990 0.49863 0.00000
C768 C 0.97299 0.34955 0.51657 0.00000
H769 H 0.01956 0.36579 0.49040 0.00000
H770 H 0.00980 0.33755 0.47945 0.00000
H771 H 0.01109 0.35286 0.53460 0.00000
H772 H 0.00466 0.32295 0.52542 0.00000
H773 H 0.96357 0.34666 0.53368 0.00000
H774 H 0.97165 0.36876 0.51210 0.00000
C775 C 0.01934 0.34644 0.49428 0.00000
C776 C 0.00330 0.34194 0.52012 0.00000
C777 C 0.48104 0.65679 0.02662 0.00000
H778 H 0.49793 0.63403 0.97851 0.00000
H779 H 0.52024 0.65352 0.99014 0.00000
H780 H 0.46413 0.66480 0.98870 0.00000
H781 H 0.48567 0.68681 0.99718 0.00000
H782 H 0.46689 0.66636 0.03653 0.00000
H783 H 0.47637 0.63759 0.02644 0.00000
C784 C 0.50317 0.65298 0.98023 0.00000
C785 C 0.48183 0.66742 0.99702 0.00000
C786 C 0.35289 0.50386 0.03039 0.00000
H787 H 0.33390 0.52717 0.98335 0.00000
H788 H 0.32289 0.49747 0.98638 0.00000
H789 H 0.37671 0.51392 0.99693 0.00000
H790 H 0.36807 0.48317 0.99676 0.00000
H791 H 0.36836 0.49978 0.04196 0.00000
H792 H 0.34733 0.52247 0.03407 0.00000
C793 C 0.33863 0.50815 0.98106 0.00000
C794 C 0.36170 0.50155 0.00010 0.00000
C795 C 0.51876 0.34440 0.02665 0.00000
H796 H 0.50003 0.36634 0.97885 0.00000
H797 H 0.47940 0.34493 0.99020 0.00000
H798 H 0.53625 0.33833 0.98864 0.00000
H799 H 0.51660 0.31451 0.99680 0.00000
H800 H 0.53365 0.33589 0.03644 0.00000
H801 H 0.52183 0.36392 0.02674 0.00000
C802 C 0.49637 0.34700 0.98031 0.00000
C803 C 0.51883 0.33415 0.99692 0.00000
C804 C 0.72290 0.49607 0.76453 0.00000
H805 H 0.76726 0.47437 0.73850 0.00000
H806 H 0.77607 0.49818 0.75769 0.00000
H807 H 0.73050 0.49890 0.72304 0.00000
H808 H 0.74022 0.52488 0.73886 0.00000
H809 H 0.70461 0.50338 0.76313 0.00000
H810 H 0.72155 0.47635 0.76459 0.00000
C811 C 0.76820 0.49402 0.74006 0.00000
C812 C 0.73954 0.50514 0.73943 0.00000
C813 C 0.51237 0.23194 0.27310 0.00000
H814 H 0.49280 0.27839 0.24909 0.00000
H815 H 0.48114 0.25253 0.23465 0.00000
H816 H 0.53559 0.25946 0.25094 0.00000
H817 H 0.52619 0.23460 0.23321 0.00000
H818 H 0.52802 0.22179 0.27960 0.00000
H819 H 0.50737 0.24496 0.28710 0.00000
C820 C 0.49700 0.26422 0.23600 0.00000
C821 C 0.52037 0.24753 0.24699 0.00000
C822 C 0.72451 0.50833 0.23373 0.00000
H823 H 0.77338 0.52440 0.25542 0.00000
H824 H 0.77573 0.49526 0.24283 0.00000
H825 H 0.73214 0.51388 0.27495 0.00000
H826 H 0.73494 0.48329 0.26618 0.00000
H827 H 0.70503 0.50619 0.23618 0.00000
H828 H 0.72795 0.52719 0.22890 0.00000
C829 C 0.76951 0.50532 0.25865 0.00000
C830 C 0.73903 0.50189 0.26087 0.00000
C831 C 0.49229 0.76517 0.27612 0.00000
H832 H 0.51682 0.72538 0.24560 0.00000
H833 H 0.51535 0.75270 0.22932 0.00000
H834 H 0.47291 0.73081 0.26092 0.00000
H835 H 0.46871 0.75631 0.24215 0.00000
H836 H 0.47700 0.77055 0.28740 0.00000
H837 H 0.50489 0.75502 0.28747 0.00000
C838 C 0.50488 0.73691 0.23492 0.00000
C839 C 0.48195 0.74648 0.25304 0.00000
C840 C 0.23500 0.50551 0.27668 0.00000
H841 H 0.25941 0.52555 0.23064 0.00000
H842 H 0.24230 0.49958 0.22386 0.00000
H843 H 0.27663 0.50552 0.26930 0.00000
H844 H 0.26307 0.47759 0.26179 0.00000
H845 H 0.23690 0.49988 0.29551 0.00000
H846 H 0.23331 0.52520 0.27639 0.00000
C847 C 0.25948 0.50583 0.23134 0.00000
C848 C 0.26087 0.49721 0.26083 0.00000
C849 C 0.50507 0.78387 0.74250 0.00000
H850 H 0.52477 0.73897 0.76920 0.00000
H851 H 0.50137 0.73078 0.74925 0.00000
H852 H 0.50073 0.77637 0.78388 0.00000
H853 H 0.47501 0.76732 0.76723 0.00000
H854 H 0.49820 0.80234 0.74368 0.00000
H855 H 0.52481 0.78471 0.74307 0.00000
C856 C 0.50516 0.73854 0.76701 0.00000
C857 C 0.49478 0.76749 0.76729 0.00000
C858 C 0.21558 0.74293 0.49878 0.00000
H859 H 0.25626 0.77393 0.47639 0.00000
H860 H 0.26849 0.75012 0.49360 0.00000
H861 H 0.22430 0.78292 0.50941 0.00000
H862 H 0.23786 0.76193 0.52931 0.00000
H863 H 0.19877 0.74236 0.50912 0.00000
H864 H 0.21102 0.74721 0.48003 0.00000
C865 C 0.26038 0.76809 0.49479 0.00000
C866 C 0.23394 0.76572 0.51031 0.00000
C867 C 0.76425 0.27735 0.50254 0.00000
H868 H 0.73673 0.23450 0.52543 0.00000
H869 H 0.75755 0.22414 0.50369 0.00000
H870 H 0.72304 0.26939 0.49736 0.00000
H871 H 0.74065 0.25795 0.47329 0.00000
H872 H 0.76336 0.29508 0.49389 0.00000
H873 H 0.76292 0.28008 0.52207 0.00000
C874 C 0.73967 0.23219 0.50605 0.00000
C875 C 0.73983 0.26001 0.49293 0.00000
C876 C 0.74198 0.78330 0.49303 0.00000
H877 H 0.76667 0.73645 0.47535 0.00000
H878 H 0.74918 0.73079 0.50133 0.00000
H879 H 0.78361 0.77594 0.49395 0.00000
H880 H 0.76963 0.76963 0.52197 0.00000
H881 H 0.74380 0.80236 0.49787 0.00000
H882 H 0.74058 0.78216 0.47335 0.00000
C883 C 0.76645 0.73799 0.49503 0.00000
C884 C 0.76772 0.76783 0.50238 0.00000
C885 C 0.21733 0.25860 0.50848 0.00000
H886 H 0.26566 0.23545 0.52415 0.00000
H887 H 0.26899 0.25067 0.49640 0.00000
H888 H 0.22483 0.21704 0.51046 0.00000
H889 H 0.22867 0.22858 0.48093 0.00000
H890 H 0.19794 0.25640 0.50545 0.00000
H891 H 0.22012 0.26167 0.52781 0.00000
C892 C 0.26245 0.23400 0.50473 0.00000
C893 C 0.23211 0.23215 0.50006 0.00000
C894 C 0.23537 0.50607 0.72329 0.00000
H895 H 0.27302 0.48089 0.75594 0.00000
H896 H 0.24605 0.48624 0.77198 0.00000
H897 H 0.27142 0.52358 0.73676 0.00000
H898 H 0.24651 0.53169 0.75504 0.00000
H899 H 0.23130 0.52071 0.71069 0.00000
H900 H 0.24428 0.49165 0.71312 0.00000
C901 C 0.26267 0.49472 0.76550 0.00000
C902 C 0.25505 0.51670 0.74539 0.00000
C903 C 0.49052 0.23402 0.72473 0.00000
H904 H 0.51385 0.27621 0.75290 0.00000
H905 H 0.51689 0.24893 0.76901 0.00000
H906 H 0.46938 0.26624 0.74214 0.00000
H907 H 0.46979 0.24048 0.76103 0.00000
H908 H 0.47478 0.22707 0.71505 0.00000
H909 H 0.50078 0.24539 0.71223 0.00000
C910 C 0.50433 0.26353 0.76466 0.00000
C911 C 0.48076 0.25160 0.74891 0.00000
loop_
_geom_bond_atom_site_label_1
_geom_bond_atom_site_label_2
_geom_bond_distance
_geom_bond_site_symmetry_2
_ccdc_geom_bond_type
Tb0 O9 2.325 . S
Tb0 O13 2.305 . S
Tb0 O15 2.321 . S
Tb0 O17 2.329 . S
Tb0 O18 2.431 . S
Tb0 O19 2.563 . S
C1 O18 1.257 . A
C1 O19 1.255 . A
Tb2 O6 2.320 . S
Tb2 O8 2.296 . S
Tb2 O10 2.298 . S
Tb2 O12 2.323 . S
Tb2 O14 2.345 . S
C3 O12 1.252 . A
C3 O13 1.249 . A
C4 O8 1.242 . A
C4 O9 1.255 . A
C5 O14 1.244 . A
C5 O15 1.247 . A
O6 C16 1.268 . S
O7 C16 1.245 . D
O10 C11 1.246 . A
C11 O17 1.250 . A
Tb20 O29 2.325 . S
Tb20 O33 2.305 . S
Tb20 O35 2.321 . S
Tb20 O37 2.329 . S
Tb20 O38 2.431 . S
Tb20 O39 2.563 . S
C21 O38 1.257 . A
C21 O39 1.255 . A
Tb22 O26 2.320 . S
Tb22 O28 2.296 . S
Tb22 O30 2.298 . S
Tb22 O32 2.323 . S
Tb22 O34 2.345 . S
C23 O32 1.252 . A
C23 O33 1.249 . A
C24 O28 1.242 . A
C24 O29 1.255 . A
C25 O34 1.244 . A
C25 O35 1.247 . A
O26 C36 1.268 . S
O27 C36 1.245 . D
O30 C31 1.246 . A
C31 O37 1.250 . A
Tb40 O49 2.325 . S
Tb40 O53 2.305 . S
Tb40 O55 2.321 . S
Tb40 O57 2.329 . S
Tb40 O58 2.431 . S
Tb40 O59 2.563 . S
C41 O58 1.257 . A
C41 O59 1.255 . A
Tb42 O46 2.320 . S
Tb42 O48 2.296 . S
Tb42 O50 2.298 . S
Tb42 O52 2.323 . S
Tb42 O54 2.345 . S
C43 O52 1.252 . A
C43 O53 1.249 . A
C44 O48 1.242 . A
C44 O49 1.255 . A
C45 O54 1.244 . A
C45 O55 1.247 . A
O46 C56 1.268 . S
O47 C56 1.245 . D
O50 C51 1.246 . A
C51 O57 1.250 . A
Tb60 O69 2.325 . S
Tb60 O73 2.305 . S
Tb60 O75 2.321 . S
Tb60 O77 2.329 . S
Tb60 O78 2.431 . S
Tb60 O79 2.563 . S
C61 O78 1.257 . A
C61 O79 1.255 . A
Tb62 O66 2.320 . S
Tb62 O68 2.296 . S
Tb62 O70 2.298 . S
Tb62 O72 2.323 . S
Tb62 O74 2.345 . S
C63 O72 1.252 . A
C63 O73 1.249 . A
C64 O68 1.242 . A
C64 O69 1.255 . A
C65 O74 1.244 . A
C65 O75 1.247 . A
O66 C76 1.268 . S
O67 C76 1.245 . D
O70 C71 1.246 . A
C71 O77 1.250 . A
Tb80 O89 2.325 . S
Tb80 O93 2.305 . S
Tb80 O95 2.321 . S
Tb80 O97 2.329 . S
Tb80 O98 2.431 . S
Tb80 O99 2.563 . S
C81 O98 1.257 . A
C81 O99 1.255 . A
Tb82 O86 2.320 . S
Tb82 O88 2.296 . S
Tb82 O90 2.298 . S
Tb82 O92 2.323 . S
Tb82 O94 2.345 . S
C83 O92 1.252 . A
C83 O93 1.249 . A
C84 O88 1.242 . A
C84 O89 1.255 . A
C85 O94 1.244 . A
C85 O95 1.247 . A
O86 C96 1.268 . S
O87 C96 1.245 . D
O90 C91 1.246 . A
C91 O97 1.250 . A
Tb100 O109 2.325 . S
Tb100 O113 2.305 . S
Tb100 O115 2.321 . S
Tb100 O117 2.329 . S
Tb100 O118 2.431 . S
Tb100 O119 2.563 . S
C101 O118 1.257 . A
C101 O119 1.255 . A
Tb102 O106 2.320 . S
Tb102 O108 2.296 . S
Tb102 O110 2.298 . S
Tb102 O112 2.323 . S
Tb102 O114 2.345 . S
C103 O112 1.252 . A
C103 O113 1.249 . A
C104 O108 1.242 . A
C104 O109 1.255 . A
C105 O114 1.244 . A
C105 O115 1.247 . A
O106 C116 1.268 . S
O107 C116 1.245 . D
O110 C111 1.246 . A
C111 O117 1.250 . A
Tb120 O129 2.325 . S
Tb120 O133 2.305 . S
Tb120 O135 2.321 . S
Tb120 O137 2.329 . S
Tb120 O138 2.431 . S
Tb120 O139 2.563 . S
C121 O138 1.257 . A
C121 O139 1.255 . A
Tb122 O126 2.320 . S
Tb122 O128 2.296 . S
Tb122 O130 2.298 . S
Tb122 O132 2.323 . S
Tb122 O134 2.345 . S
C123 O132 1.252 . A
C123 O133 1.249 . A
C124 O128 1.242 . A
C124 O129 1.255 . A
C125 O134 1.244 . A
C125 O135 1.247 . A
O126 C136 1.268 . S
O127 C136 1.245 . D
O130 C131 1.246 . A
C131 O137 1.250 . A
Tb140 O149 2.325 . S
Tb140 O153 2.305 . S
Tb140 O155 2.321 . S
Tb140 O157 2.329 . S
Tb140 O158 2.431 . S
Tb140 O159 2.563 . S
C141 O158 1.257 . A
C141 O159 1.255 . A
Tb142 O146 2.320 . S
Tb142 O148 2.296 . S
Tb142 O150 2.298 . S
Tb142 O152 2.323 . S
Tb142 O154 2.345 . S
C143 O152 1.252 . A
C143 O153 1.249 . A
C144 O148 1.242 . A
C144 O149 1.255 . A
C145 O154 1.244 . A
C145 O155 1.247 . A
O146 C156 1.268 . S
O147 C156 1.245 . D
O150 C151 1.246 . A
C151 O157 1.250 . A
Tb160 O169 2.325 . S
Tb160 O173 2.305 . S
Tb160 O175 2.321 . S
Tb160 O177 2.329 . S
Tb160 O178 2.431 . S
Tb160 O179 2.563 . S
C161 O178 1.257 . A
C161 O179 1.255 . A
Tb162 O166 2.320 . S
Tb162 O168 2.296 . S
Tb162 O170 2.298 . S
Tb162 O172 2.323 . S
Tb162 O174 2.345 . S
C163 O172 1.252 . A
C163 O173 1.249 . A
C164 O168 1.242 . A
C164 O169 1.255 . A
C165 O174 1.244 . A
C165 O175 1.247 . A
O166 C176 1.268 . S
O167 C176 1.245 . D
O170 C171 1.246 . A
C171 O177 1.250 . A
Tb180 O189 2.325 . S
Tb180 O193 2.305 . S
Tb180 O195 2.321 . S
Tb180 O197 2.329 . S
Tb180 O198 2.431 . S
Tb180 O199 2.563 . S
C181 O198 1.257 . A
C181 O199 1.255 . A
Tb182 O186 2.320 . S
Tb182 O188 2.296 . S
Tb182 O190 2.298 . S
Tb182 O192 2.323 . S
Tb182 O194 2.345 . S
C183 O192 1.252 . A
C183 O193 1.249 . A
C184 O188 1.242 . A
C184 O189 1.255 . A
C185 O194 1.244 . A
C185 O195 1.247 . A
O186 C196 1.268 . S
O187 C196 1.245 . D
O190 C191 1.246 . A
C191 O197 1.250 . A
Tb200 O209 2.325 . S
Tb200 O213 2.305 . S
Tb200 O215 2.321 . S
Tb200 O217 2.329 . S
Tb200 O218 2.431 . S
Tb200 O219 2.563 . S
C201 O218 1.257 . A
C201 O219 1.255 . A
Tb202 O206 2.320 . S
Tb202 O208 2.296 . S
Tb202 O210 2.298 . S
Tb202 O212 2.323 . S
Tb202 O214 2.345 . S
C203 O212 1.252 . A
C203 O213 1.249 . A
C204 O208 1.242 . A
C204 O209 1.255 . A
C205 O214 1.244 . A
C205 O215 1.247 . A
O206 C216 1.268 . S
O207 C216 1.245 . D
O210 C211 1.246 . A
C211 O217 1.250 . A
Tb220 O229 2.325 . S
Tb220 O233 2.305 . S
Tb220 O235 2.321 . S
Tb220 O237 2.329 . S
Tb220 O238 2.431 . S
Tb220 O239 2.563 . S
C221 O238 1.257 . A
C221 O239 1.255 . A
Tb222 O226 2.320 . S
Tb222 O228 2.296 . S
Tb222 O230 2.298 . S
Tb222 O232 2.323 . S
Tb222 O234 2.345 . S
C223 O232 1.252 . A
C223 O233 1.249 . A
C224 O228 1.242 . A
C224 O229 1.255 . A
C225 O234 1.244 . A
C225 O235 1.247 . A
O226 C236 1.268 . S
O227 C236 1.245 . D
O230 C231 1.246 . A
C231 O237 1.250 . A
Tb240 O249 2.325 . S
Tb240 O253 2.305 . S
Tb240 O255 2.321 . S
Tb240 O257 2.329 . S
Tb240 O258 2.431 . S
Tb240 O259 2.563 . S
C241 O258 1.257 . A
C241 O259 1.255 . A
Tb242 O246 2.320 . S
Tb242 O248 2.296 . S
Tb242 O250 2.298 . S
Tb242 O252 2.323 . S
Tb242 O254 2.345 . S
C243 O252 1.252 . A
C243 O253 1.249 . A
C244 O248 1.242 . A
C244 O249 1.255 . A
C245 O254 1.244 . A
C245 O255 1.247 . A
O246 C256 1.268 . S
O247 C256 1.245 . D
O250 C251 1.246 . A
C251 O257 1.250 . A
Tb260 O269 2.325 . S
Tb260 O273 2.305 . S
Tb260 O275 2.321 . S
Tb260 O277 2.329 . S
Tb260 O278 2.431 . S
Tb260 O279 2.563 . S
C261 O278 1.257 . A
C261 O279 1.255 . A
Tb262 O266 2.320 . S
Tb262 O268 2.296 . S
Tb262 O270 2.298 . S
Tb262 O272 2.323 . S
Tb262 O274 2.345 . S
C263 O272 1.252 . A
C263 O273 1.249 . A
C264 O268 1.242 . A
C264 O269 1.255 . A
C265 O274 1.244 . A
C265 O275 1.247 . A
O266 C276 1.268 . S
O267 C276 1.245 . D
O270 C271 1.246 . A
C271 O277 1.250 . A
Tb280 O289 2.325 . S
Tb280 O293 2.305 . S
Tb280 O295 2.321 . S
Tb280 O297 2.329 . S
Tb280 O298 2.431 . S
Tb280 O299 2.563 . S
C281 O298 1.257 . A
C281 O299 1.255 . A
Tb282 O286 2.320 . S
Tb282 O288 2.296 . S
Tb282 O290 2.298 . S
Tb282 O292 2.323 . S
Tb282 O294 2.345 . S
C283 O292 1.252 . A
C283 O293 1.249 . A
C284 O288 1.242 . A
C284 O289 1.255 . A
C285 O294 1.244 . A
C285 O295 1.247 . A
O286 C296 1.268 . S
O287 C296 1.245 . D
O290 C291 1.246 . A
C291 O297 1.250 . A
Tb300 O309 2.325 . S
Tb300 O313 2.305 . S
Tb300 O315 2.321 . S
Tb300 O317 2.329 . S
Tb300 O318 2.431 . S
Tb300 O319 2.563 . S
C301 O318 1.257 . A
C301 O319 1.255 . A
Tb302 O306 2.320 . S
Tb302 O308 2.296 . S
Tb302 O310 2.298 . S
Tb302 O312 2.323 . S
Tb302 O314 2.345 . S
C303 O312 1.252 . A
C303 O313 1.249 . A
C304 O308 1.242 . A
C304 O309 1.255 . A
C305 O314 1.244 . A
C305 O315 1.247 . A
O306 C316 1.268 . S
O307 C316 1.245 . D
O310 C311 1.246 . A
C311 O317 1.250 . A
Tb320 O329 2.325 . S
Tb320 O333 2.305 . S
Tb320 O335 2.321 . S
Tb320 O337 2.329 . S
Tb320 O338 2.431 . S
Tb320 O339 2.563 . S
C321 O338 1.257 . A
C321 O339 1.255 . A
Tb322 O326 2.320 . S
Tb322 O328 2.296 . S
Tb322 O330 2.298 . S
Tb322 O332 2.323 . S
Tb322 O334 2.345 . S
C323 O332 1.252 . A
C323 O333 1.249 . A
C324 O328 1.242 . A
C324 O329 1.255 . A
C325 O334 1.244 . A
C325 O335 1.247 . A
O326 C336 1.268 . S
O327 C336 1.245 . D
O330 C331 1.246 . A
C331 O337 1.250 . A
Tb340 O349 2.325 . S
Tb340 O353 2.305 . S
Tb340 O355 2.321 . S
Tb340 O357 2.329 . S
Tb340 O358 2.431 . S
Tb340 O359 2.563 . S
C341 O358 1.257 . A
C341 O359 1.255 . A
Tb342 O346 2.320 . S
Tb342 O348 2.296 . S
Tb342 O350 2.298 . S
Tb342 O352 2.323 . S
Tb342 O354 2.345 . S
C343 O352 1.252 . A
C343 O353 1.249 . A
C344 O348 1.242 . A
C344 O349 1.255 . A
C345 O354 1.244 . A
C345 O355 1.247 . A
O346 C356 1.268 . S
O347 C356 1.245 . D
O350 C351 1.246 . A
C351 O357 1.250 . A
Tb360 O369 2.325 . S
Tb360 O373 2.305 . S
Tb360 O375 2.321 . S
Tb360 O377 2.329 . S
Tb360 O378 2.431 . S
Tb360 O379 2.563 . S
C361 O378 1.257 . A
C361 O379 1.255 . A
Tb362 O366 2.320 . S
Tb362 O368 2.296 . S
Tb362 O370 2.298 . S
Tb362 O372 2.323 . S
Tb362 O374 2.345 . S
C363 O372 1.252 . A
C363 O373 1.249 . A
C364 O368 1.242 . A
C364 O369 1.255 . A
C365 O374 1.244 . A
C365 O375 1.247 . A
O366 C376 1.268 . S
O367 C376 1.245 . D
O370 C371 1.246 . A
C371 O377 1.250 . A
Tb380 O389 2.325 . S
Tb380 O393 2.305 . S
Tb380 O395 2.321 . S
Tb380 O397 2.329 . S
Tb380 O398 2.431 . S
Tb380 O399 2.563 . S
C381 O398 1.257 . A
C381 O399 1.255 . A
Tb382 O386 2.320 . S
Tb382 O388 2.296 . S
Tb382 O390 2.298 . S
Tb382 O392 2.323 . S
Tb382 O394 2.345 . S
C383 O392 1.252 . A
C383 O393 1.249 . A
C384 O388 1.242 . A
C384 O389 1.255 . A
C385 O394 1.244 . A
C385 O395 1.247 . A
O386 C396 1.268 . S
O387 C396 1.245 . D
O390 C391 1.246 . A
C391 O397 1.250 . A
Tb400 O409 2.325 . S
Tb400 O413 2.305 . S
Tb400 O415 2.321 . S
Tb400 O417 2.329 . S
Tb400 O418 2.431 . S
Tb400 O419 2.563 . S
C401 O418 1.257 . A
C401 O419 1.255 . A
Tb402 O406 2.320 . S
Tb402 O408 2.296 . S
Tb402 O410 2.298 . S
Tb402 O412 2.323 . S
Tb402 O414 2.345 . S
C403 O412 1.252 . A
C403 O413 1.249 . A
C404 O408 1.242 . A
C404 O409 1.255 . A
C405 O414 1.244 . A
C405 O415 1.247 . A
O406 C416 1.268 . S
O407 C416 1.245 . D
O410 C411 1.246 . A
C411 O417 1.250 . A
Tb420 O429 2.325 . S
Tb420 O433 2.305 . S
Tb420 O435 2.321 . S
Tb420 O437 2.329 . S
Tb420 O438 2.431 . S
Tb420 O439 2.563 . S
C421 O438 1.257 . A
C421 O439 1.255 . A
Tb422 O426 2.320 . S
Tb422 O428 2.296 . S
Tb422 O430 2.298 . S
Tb422 O432 2.323 . S
Tb422 O434 2.345 . S
C423 O432 1.252 . A
C423 O433 1.249 . A
C424 O428 1.242 . A
C424 O429 1.255 . A
C425 O434 1.244 . A
C425 O435 1.247 . A
O426 C436 1.268 . S
O427 C436 1.245 . D
O430 C431 1.246 . A
C431 O437 1.250 . A
Tb440 O449 2.325 . S
Tb440 O453 2.305 . S
Tb440 O455 2.321 . S
Tb440 O457 2.329 . S
Tb440 O458 2.431 . S
Tb440 O459 2.563 . S
C441 O458 1.257 . A
C441 O459 1.255 . A
Tb442 O446 2.320 . S
Tb442 O448 2.296 . S
Tb442 O450 2.298 . S
Tb442 O452 2.323 . S
Tb442 O454 2.345 . S
C443 O452 1.252 . A
C443 O453 1.249 . A
C444 O448 1.242 . A
C444 O449 1.255 . A
C445 O454 1.244 . A
C445 O455 1.247 . A
O446 C456 1.268 . S
O447 C456 1.245 . D
O450 C451 1.246 . A
C451 O457 1.250 . A
Tb460 O469 2.325 . S
Tb460 O473 2.305 . S
Tb460 O475 2.321 . S
Tb460 O477 2.329 . S
Tb460 O478 2.431 . S
Tb460 O479 2.563 . S
C461 O478 1.257 . A
C461 O479 1.255 . A
Tb462 O466 2.320 . S
Tb462 O468 2.296 . S
Tb462 O470 2.298 . S
Tb462 O472 2.323 . S
Tb462 O474 2.345 . S
C463 O472 1.252 . A
C463 O473 1.249 . A
C464 O468 1.242 . A
C464 O469 1.255 . A
C465 O474 1.244 . A
C465 O475 1.247 . A
O466 C476 1.268 . S
O467 C476 1.245 . D
O470 C471 1.246 . A
C471 O477 1.250 . A
C480 H485 0.970 . S
C480 H486 0.971 . S
C480 C488 1.545 . S
H481 C487 0.970 . S
H482 C487 0.970 . S
H483 C488 0.970 . S
H484 C488 0.971 . S
C487 C488 1.511 . S
C489 H494 0.970 . S
C489 H495 0.971 . S
C489 C497 1.545 . S
H490 C496 0.970 . S
H491 C496 0.970 . S
H492 C497 0.970 . S
H493 C497 0.971 . S
C496 C497 1.511 . S
C498 H503 0.970 . S
C498 H504 0.971 . S
C498 C506 1.545 . S
H499 C505 0.970 . S
H500 C505 0.970 . S
H501 C506 0.970 . S
H502 C506 0.971 . S
C505 C506 1.511 . S
C507 H512 0.970 . S
C507 H513 0.971 . S
C507 C515 1.545 . S
H508 C514 0.970 . S
H509 C514 0.970 . S
H510 C515 0.970 . S
H511 C515 0.971 . S
C514 C515 1.511 . S
C516 H521 0.970 . S
C516 H522 0.971 . S
C516 C524 1.545 . S
H517 C523 0.970 . S
H518 C523 0.970 . S
H519 C524 0.970 . S
H520 C524 0.971 . S
C523 C524 1.511 . S
C525 H530 0.970 . S
C525 H531 0.971 . S
C525 C533 1.545 . S
H526 C532 0.970 . S
H527 C532 0.970 . S
H528 C533 0.970 . S
H529 C533 0.971 . S
C532 C533 1.511 . S
C534 H539 0.970 . S
C534 H540 0.971 . S
C534 C542 1.545 . S
H535 C541 0.970 . S
H536 C541 0.970 . S
H537 C542 0.970 . S
H538 C542 0.971 . S
C541 C542 1.511 . S
C543 H548 0.970 . S
C543 H549 0.971 . S
C543 C551 1.545 . S
H544 C550 0.970 . S
H545 C550 0.970 . S
H546 C551 0.970 . S
H547 C551 0.971 . S
C550 C551 1.511 . S
C552 H557 0.970 . S
C552 H558 0.971 . S
C552 C560 1.545 . S
H553 C559 0.970 . S
H554 C559 0.970 . S
H555 C560 0.970 . S
H556 C560 0.971 . S
C559 C560 1.511 . S
C561 H566 0.970 . S
C561 H567 0.971 . S
C561 C569 1.545 . S
H562 C568 0.970 . S
H563 C568 0.970 . S
H564 C569 0.970 . S
H565 C569 0.971 . S
C568 C569 1.511 . S
C570 H575 0.970 . S
C570 H576 0.971 . S
C570 C578 1.545 . S
H571 C577 0.970 . S
H572 C577 0.970 . S
H573 C578 0.970 . S
H574 C578 0.971 . S
C577 C578 1.511 . S
C579 H584 0.970 . S
C579 H585 0.971 . S
C579 C587 1.545 . S
H580 C586 0.970 . S
H581 C586 0.970 . S
H582 C587 0.970 . S
H583 C587 0.971 . S
C586 C587 1.511 . S
C588 H593 0.970 . S
C588 H594 0.971 . S
C588 C596 1.545 . S
H589 C595 0.970 . S
H590 C595 0.970 . S
H591 C596 0.970 . S
H592 C596 0.971 . S
C595 C596 1.511 . S
C597 H602 0.970 . S
C597 H603 0.971 . S
C597 C605 1.545 . S
H598 C604 0.970 . S
H599 C604 0.970 . S
H600 C605 0.970 . S
H601 C605 0.971 . S
C604 C605 1.511 . S
C606 H611 0.970 . S
C606 H612 0.971 . S
C606 C614 1.545 . S
H607 C613 0.970 . S
H608 C613 0.970 . S
H609 C614 0.970 . S
H610 C614 0.971 . S
C613 C614 1.511 . S
C615 H620 0.970 . S
C615 H621 0.971 . S
C615 C623 1.545 . S
H616 C622 0.970 . S
H617 C622 0.970 . S
H618 C623 0.970 . S
H619 C623 0.971 . S
C622 C623 1.511 . S
C624 H629 0.970 . S
C624 H630 0.971 . S
C624 C632 1.545 . S
H625 C631 0.970 . S
H626 C631 0.970 . S
H627 C632 0.970 . S
H628 C632 0.971 . S
C631 C632 1.511 . S
C633 H638 0.970 . S
C633 H639 0.971 . S
C633 C641 1.545 . S
H634 C640 0.970 . S
H635 C640 0.970 . S
H636 C641 0.970 . S
H637 C641 0.971 . S
C640 C641 1.511 . S
C642 H647 0.970 . S
C642 H648 0.971 . S
C642 C650 1.545 . S
H643 C649 0.970 . S
H644 C649 0.970 . S
H645 C650 0.970 . S
H646 C650 0.971 . S
C649 C650 1.511 . S
C651 H656 0.970 . S
C651 H657 0.971 . S
C651 C659 1.545 . S
H652 C658 0.970 . S
H653 C658 0.970 . S
H654 C659 0.970 . S
H655 C659 0.971 . S
C658 C659 1.511 . S
C660 H665 0.970 . S
C660 H666 0.971 . S
C660 C668 1.545 . S
H661 C667 0.970 . S
H662 C667 0.970 . S
H663 C668 0.970 . S
H664 C668 0.971 . S
C667 C668 1.511 . S
C669 H674 0.970 . S
C669 H675 0.971 . S
C669 C677 1.545 . S
H670 C676 0.970 . S
H671 C676 0.970 . S
H672 C677 0.970 . S
H673 C677 0.971 . S
C676 C677 1.511 . S
C678 H683 0.970 . S
C678 H684 0.971 . S
C678 C686 1.545 . S
H679 C685 0.970 . S
H680 C685 0.970 . S
H681 C686 0.970 . S
H682 C686 0.971 . S
C685 C686 1.511 . S
C687 H692 0.970 . S
C687 H693 0.971 . S
C687 C695 1.545 . S
H688 C694 0.970 . S
H689 C694 0.970 . S
H690 C695 0.970 . S
H691 C695 0.971 . S
C694 C695 1.511 . S
C696 H701 0.970 . S
C696 H702 0.971 . S
C696 C704 1.549 1_455 S
H697 C703 0.970 . S
H698 C703 0.970 . S
H699 C704 0.968 . S
H700 C704 0.972 1_455 S
C703 C704 1.508 . S
C705 H710 0.970 . S
C705 H711 0.971 . S
C705 C713 1.545 1_565 S
H706 C712 0.970 . S
H707 C712 0.970 . S
H708 C713 0.970 . S
H709 C713 0.971 . S
C712 C713 1.511 . S
C714 H719 0.970 . S
C714 H720 0.971 . S
C714 C722 1.545 1_455 S
H715 C721 0.970 . S
H716 C721 0.970 . S
H717 C722 0.970 . S
H718 C722 0.971 . S
C721 C722 1.511 . S
C723 H728 0.970 . S
C723 H729 0.971 . S
C723 C731 1.564 . S
H724 C730 0.970 . S
H725 C730 0.970 . S
H726 C731 0.963 1_556 S
H727 C731 0.974 . S
C730 C731 1.497 1_556 S
C732 H737 0.970 . S
C732 H738 0.971 . S
C732 C740 1.560 . S
H733 C739 0.970 . S
H734 C739 0.970 . S
H735 C740 0.967 1_565 S
H736 C740 0.969 1_565 S
C739 C740 1.501 1_565 S
C741 H746 0.970 . S
C741 H747 0.971 . S
C741 C749 1.552 . S
H742 C748 0.970 . S
H743 C748 0.970 . S
H744 C749 0.967 1_545 S
H745 C749 0.972 . S
C748 C749 1.505 1_545 S
C750 H755 0.970 . S
C750 H756 0.971 . S
C750 C758 1.545 . S
H751 C757 0.970 . S
H752 C757 0.970 . S
H753 C758 0.972 . S
H754 C758 0.975 . S
C757 C758 1.511 1_455 S
C759 H764 0.970 . S
C759 H765 0.971 . S
C759 C767 1.541 1_545 S
H760 C766 0.970 . S
H761 C766 0.970 . S
H762 C767 0.971 . S
H763 C767 0.971 1_545 S
C766 C767 1.514 . S
C768 H773 0.970 . S
C768 H774 0.971 . S
C768 C776 1.545 1_655 S
H769 C775 0.970 . S
H770 C775 0.970 . S
H771 C776 0.970 . S
H772 C776 0.971 . S
C775 C776 1.511 . S
C777 H782 0.970 . S
C777 H783 0.971 . S
C777 C785 1.545 1_554 S
H778 C784 0.970 . S
H779 C784 0.970 . S
H780 C785 0.970 . S
H781 C785 0.971 . S
C784 C785 1.511 . S
C786 H791 0.970 . S
C786 H792 0.971 . S
C786 C794 1.554 . S
H787 C793 0.970 . S
H788 C793 0.970 . S
H789 C794 0.968 1_556 S
H790 C794 0.970 1_556 S
C793 C794 1.505 1_556 S
C795 H800 0.970 . S
C795 H801 0.971 . S
C795 C803 1.545 1_554 S
H796 C802 0.970 . S
H797 C802 0.970 . S
H798 C803 0.970 . S
H799 C803 0.971 . S
C802 C803 1.511 . S
C804 H809 0.970 . S
C804 H810 0.971 . S
C804 C812 1.545 . S
H805 C811 0.970 . S
H806 C811 0.970 . S
H807 C812 0.970 . S
H808 C812 0.971 . S
C811 C812 1.511 . S
C813 H818 0.970 . S
C813 H819 0.971 . S
C813 C821 1.545 . S
H814 C820 0.970 . S
H815 C820 0.970 . S
H816 C821 0.970 . S
H817 C821 0.971 . S
C820 C821 1.511 . S
C822 H827 0.970 . S
C822 H828 0.971 . S
C822 C830 1.545 . S
H823 C829 0.970 . S
H824 C829 0.970 . S
H825 C830 0.970 . S
H826 C830 0.971 . S
C829 C830 1.511 . S
C831 H836 0.970 . S
C831 H837 0.971 . S
C831 C839 1.545 . S
H832 C838 0.970 . S
H833 C838 0.970 . S
H834 C839 0.970 . S
H835 C839 0.971 . S
C838 C839 1.511 . S
C840 H845 0.970 . S
C840 H846 0.971 . S
C840 C848 1.545 . S
H841 C847 0.970 . S
H842 C847 0.970 . S
H843 C848 0.970 . S
H844 C848 0.971 . S
C847 C848 1.511 . S
C849 H854 0.970 . S
C849 H855 0.971 . S
C849 C857 1.545 . S
H850 C856 0.970 . S
H851 C856 0.970 . S
H852 C857 0.970 . S
H853 C857 0.971 . S
C856 C857 1.511 . S
C858 H863 0.970 . S
C858 H864 0.971 . S
C858 C866 1.545 . S
H859 C865 0.970 . S
H860 C865 0.970 . S
H861 C866 0.970 . S
H862 C866 0.971 . S
C865 C866 1.511 . S
C867 H872 0.970 . S
C867 H873 0.971 . S
C867 C875 1.545 . S
H868 C874 0.970 . S
H869 C874 0.970 . S
H870 C875 0.970 . S
H871 C875 0.971 . S
C874 C875 1.511 . S
C876 H881 0.970 . S
C876 H882 0.971 . S
C876 C884 1.545 . S
H877 C883 0.970 . S
H878 C883 0.970 . S
H879 C884 0.970 . S
H880 C884 0.971 . S
C883 C884 1.511 . S
C885 H890 0.970 . S
C885 H891 0.971 . S
C885 C893 1.545 . S
H886 C892 0.970 . S
H887 C892 0.970 . S
H888 C893 0.970 . S
H889 C893 0.971 . S
C892 C893 1.511 . S
C894 H899 0.970 . S
C894 H900 0.971 . S
C894 C902 1.545 . S
H895 C901 0.970 . S
H896 C901 0.970 . S
H897 C902 0.970 . S
H898 C902 0.971 . S
C901 C902 1.511 . S
C903 H908 0.970 . S
C903 H909 0.971 . S
C903 C911 1.545 . S
H904 C910 0.970 . S
H905 C910 0.970 . S
H906 C911 0.970 . S
H907 C911 0.971 . S
C910 C911 1.511 . S
C480 C283 1.250 . S
C487 C4 1.496 . S
C489 C24 1.192 . S
C496 C203 1.503 . S
C498 C223 1.310 . S
C505 C44 1.480 . S
C507 C163 1.116 . S
C514 C64 1.479 . S
C516 C243 1.327 . S
C523 C84 1.500 . S
C525 C303 1.116 . S
C532 C104 1.479 . S
C534 C363 1.151 . S
C541 C124 1.487 . S
C543 C424 1.196 . S
C550 C63 1.495 . S
C552 C184 1.222 . S
C559 C83 1.576 . S
C561 C143 1.149 . S
C568 C164 1.487 . S
C570 C444 1.229 . S
C577 C183 1.582 . S
C579 C263 1.438 . S
C586 C464 1.496 . S
C588 C264 1.196 . S
C595 C23 1.495 . S
C597 C423 1.126 . S
C604 C144 1.484 . S
C606 C304 1.262 . S
C613 C383 1.595 . S
C615 C123 1.128 . S
C622 C324 1.484 . S
C624 C323 1.438 . S
C631 C344 1.498 . S
C633 C343 1.439 . S
C640 C364 1.497 . S
C642 C384 1.200 . S
C649 C403 1.493 . S
C651 C404 1.193 . S
C658 C103 1.524 . S
C660 C284 1.230 . S
C667 C43 1.583 . S
C669 C244 1.204 . S
C676 C443 1.552 . S
C678 C204 1.266 . S
C685 C463 1.592 . S
C687 C3 1.363 . S
C694 C224 1.501 . S
C696 C441 1.412 . S
C703 C1 1.343 . S
C705 C61 1.397 . S
C712 C21 1.426 . S
C714 C81 1.354 . S
C721 C41 1.446 . S
C723 C121 1.388 . S
C730 C101 1.343 . S
C732 C461 0.957 . S
C739 C141 1.518 . S
C741 C161 1.400 . S
C748 C261 1.343 . S
C750 C221 0.920 . S
C757 C181 1.482 . S
C759 C201 1.420 . S
C766 C421 1.344 . S
C768 C281 1.361 . S
C775 C241 1.443 . S
C777 C321 1.432 . S
C784 C301 1.402 . S
C786 C341 0.964 . S
C793 C381 1.518 . S
C795 C361 1.423 . S
C802 C401 1.409 . S
C804 C116 1.086 . S
C811 C16 1.616 . S
C813 C36 1.258 . S
C820 C376 1.531 . S
C822 C136 1.103 . S
C829 C56 1.636 . S
C831 C76 1.168 . S
C838 C336 1.558 . S
C840 C96 1.088 . S
C847 C356 1.623 . S
C849 C156 1.535 . S
C856 C316 1.550 . S
C858 C196 1.529 . S
C865 C176 1.569 . S
C867 C296 1.086 . S
C874 C216 1.610 . S
C876 C436 1.533 . S
C883 C236 1.541 . S
C885 C256 1.528 . S
C892 C276 1.534 . S
C894 C456 1.146 . S
C901 C396 1.567 . S
C903 C476 1.196 . S
C910 C416 1.548 . S
