# Generated by pormake.
# Topology lta, (4)-cn, num edge types: 1
# Building blocks:
#     Node 0, Type 0, BuildingBlock: N242, # of connection points: 5
#     Node 1, Type 0, BuildingBlock: N242, # of connection points: 5
#     Node 2, Type 0, BuildingBlock: N242, # of connection points: 5
#     Node 3, Type 0, BuildingBlock: N242, # of connection points: 5
#     Node 4, Type 0, BuildingBlock: N242, # of connection points: 5
#     Node 5, Type 0, BuildingBlock: N242, # of connection points: 5
#     Node 6, Type 0, BuildingBlock: N242, # of connection points: 5
#     Node 7, Type 0, BuildingBlock: N242, # of connection points: 5
#     Node 8, Type 0, BuildingBlock: N242, # of connection points: 5
#     Node 9, Type 0, BuildingBlock: N242, # of connection points: 5
#     Node 10, Type 0, BuildingBlock: N242, # of connection points: 5
#     Node 11, Type 0, BuildingBlock: N242, # of connection points: 5
#     Node 12, Type 0, BuildingBlock: N242, # of connection points: 5
#     Node 13, Type 0, BuildingBlock: N242, # of connection points: 5
#     Node 14, Type 0, BuildingBlock: N242, # of connection points: 5
#     Node 15, Type 0, BuildingBlock: N242, # of connection points: 5
#     Node 16, Type 0, BuildingBlock: N242, # of connection points: 5
#     Node 17, Type 0, BuildingBlock: N242, # of connection points: 5
#     Node 18, Type 0, BuildingBlock: N242, # of connection points: 5
#     Node 19, Type 0, BuildingBlock: N242, # of connection points: 5
#     Node 20, Type 0, BuildingBlock: N242, # of connection points: 5
#     Node 21, Type 0, BuildingBlock: N242, # of connection points: 5
#     Node 22, Type 0, BuildingBlock: N242, # of connection points: 5
#     Node 23, Type 0, BuildingBlock: N242, # of connection points: 5
#     Edge 24, Type (0, 0), BuildingBlock: E153, # of connection points: 2
#     Edge 25, Type (0, 0), BuildingBlock: E153, # of connection points: 2
#     Edge 26, Type (0, 0), BuildingBlock: E153, # of connection points: 2
#     Edge 27, Type (0, 0), BuildingBlock: E153, # of connection points: 2
#     Edge 28, Type (0, 0), BuildingBlock: E153, # of connection points: 2
#     Edge 29, Type (0, 0), BuildingBlock: E153, # of connection points: 2
#     Edge 30, Type (0, 0), BuildingBlock: E153, # of connection points: 2
#     Edge 31, Type (0, 0), BuildingBlock: E153, # of connection points: 2
#     Edge 32, Type (0, 0), BuildingBlock: E153, # of connection points: 2
#     Edge 33, Type (0, 0), BuildingBlock: E153, # of connection points: 2
#     Edge 34, Type (0, 0), BuildingBlock: E153, # of connection points: 2
#     Edge 35, Type (0, 0), BuildingBlock: E153, # of connection points: 2
#     Edge 36, Type (0, 0), BuildingBlock: E153, # of connection points: 2
#     Edge 37, Type (0, 0), BuildingBlock: E153, # of connection points: 2
#     Edge 38, Type (0, 0), BuildingBlock: E153, # of connection points: 2
#     Edge 39, Type (0, 0), BuildingBlock: E153, # of connection points: 2
#     Edge 40, Type (0, 0), BuildingBlock: E153, # of connection points: 2
#     Edge 41, Type (0, 0), BuildingBlock: E153, # of connection points: 2
#     Edge 42, Type (0, 0), BuildingBlock: E153, # of connection points: 2
#     Edge 43, Type (0, 0), BuildingBlock: E153, # of connection points: 2
#     Edge 44, Type (0, 0), BuildingBlock: E153, # of connection points: 2
#     Edge 45, Type (0, 0), BuildingBlock: E153, # of connection points: 2
#     Edge 46, Type (0, 0), BuildingBlock: E153, # of connection points: 2
#     Edge 47, Type (0, 0), BuildingBlock: E153, # of connection points: 2
#     Edge 48, Type (0, 0), BuildingBlock: E153, # of connection points: 2
#     Edge 49, Type (0, 0), BuildingBlock: E153, # of connection points: 2
#     Edge 50, Type (0, 0), BuildingBlock: E153, # of connection points: 2
#     Edge 51, Type (0, 0), BuildingBlock: E153, # of connection points: 2
#     Edge 52, Type (0, 0), BuildingBlock: E153, # of connection points: 2
#     Edge 53, Type (0, 0), BuildingBlock: E153, # of connection points: 2
#     Edge 54, Type (0, 0), BuildingBlock: E153, # of connection points: 2
#     Edge 55, Type (0, 0), BuildingBlock: E153, # of connection points: 2
#     Edge 56, Type (0, 0), BuildingBlock: E153, # of connection points: 2
#     Edge 57, Type (0, 0), BuildingBlock: E153, # of connection points: 2
#     Edge 58, Type (0, 0), BuildingBlock: E153, # of connection points: 2
#     Edge 59, Type (0, 0), BuildingBlock: E153, # of connection points: 2
#     Edge 60, Type (0, 0), BuildingBlock: E153, # of connection points: 2
#     Edge 61, Type (0, 0), BuildingBlock: E153, # of connection points: 2
#     Edge 62, Type (0, 0), BuildingBlock: E153, # of connection points: 2
#     Edge 63, Type (0, 0), BuildingBlock: E153, # of connection points: 2
#     Edge 64, Type (0, 0), BuildingBlock: E153, # of connection points: 2
#     Edge 65, Type (0, 0), BuildingBlock: E153, # of connection points: 2
#     Edge 66, Type (0, 0), BuildingBlock: E153, # of connection points: 2
#     Edge 67, Type (0, 0), BuildingBlock: E153, # of connection points: 2
#     Edge 68, Type (0, 0), BuildingBlock: E153, # of connection points: 2
#     Edge 69, Type (0, 0), BuildingBlock: E153, # of connection points: 2
#     Edge 70, Type (0, 0), BuildingBlock: E153, # of connection points: 2
#     Edge 71, Type (0, 0), BuildingBlock: E153, # of connection points: 2
# Relax obj value: 0.141
# Max RMSD: 0.231
# Mean RMSD: 0.217
data_lta+N242+E153
_symmetry_space_group_name_H-M    P1
_symmetry_Int_Tables_number       1
_symmetry_cell_setting            triclinic
loop_
_symmetry_equiv_pos_as_xyz
'x, y, z'
_cell_length_a     54.739
_cell_length_b     54.739
_cell_length_c     43.855
_cell_angle_alpha  90.000
_cell_angle_beta   90.000
_cell_angle_gamma  90.000
loop_
_atom_site_label
_atom_site_type_symbol
_atom_site_fract_x
_atom_site_fract_y
_atom_site_fract_z
_atom_type_partial_charge
Co0 Co 0.89310 0.53243 0.68703 0.00000
C1 C 0.93218 0.51233 0.69175 0.00000
C2 C 0.85465 0.49030 0.66371 0.00000
Co3 Co 0.83458 0.52547 0.69222 0.00000
O4 O 0.92747 0.52626 0.66922 0.00000
O5 O 0.91575 0.50753 0.71094 0.00000
O6 O 0.83198 0.49320 0.66558 0.00000
O7 O 0.86909 0.50450 0.67666 0.00000
O8 O 0.83893 0.54942 0.65878 0.00000
C9 C 0.85788 0.55935 0.64837 0.00000
C10 C 0.80113 0.51687 0.72646 0.00000
C11 C 0.87556 0.55475 0.73299 0.00000
O12 O 0.79975 0.53399 0.70684 0.00000
O13 O 0.82079 0.50520 0.72964 0.00000
O14 O 0.89722 0.55701 0.72414 0.00000
O15 O 0.86110 0.54063 0.71994 0.00000
O16 O 0.87954 0.55552 0.65664 0.00000
Co17 Co 0.46757 0.10690 0.31297 0.00000
C18 C 0.48767 0.06782 0.30825 0.00000
C19 C 0.50970 0.14535 0.33629 0.00000
Co20 Co 0.47453 0.16542 0.30778 0.00000
O21 O 0.47374 0.07252 0.33078 0.00000
O22 O 0.49247 0.08424 0.28906 0.00000
O23 O 0.50680 0.16802 0.33442 0.00000
O24 O 0.49550 0.13091 0.32334 0.00000
O25 O 0.45058 0.16107 0.34122 0.00000
C26 C 0.44065 0.14211 0.35163 0.00000
C27 C 0.48313 0.19886 0.27354 0.00000
C28 C 0.44525 0.12443 0.26701 0.00000
O29 O 0.46601 0.20024 0.29316 0.00000
O30 O 0.49480 0.17921 0.27036 0.00000
O31 O 0.44299 0.10278 0.27586 0.00000
O32 O 0.45937 0.13889 0.28006 0.00000
O33 O 0.44448 0.12046 0.34336 0.00000
Co34 Co 0.89310 0.46757 0.31297 0.00000
C35 C 0.93218 0.48767 0.30825 0.00000
C36 C 0.85465 0.50970 0.33629 0.00000
Co37 Co 0.83458 0.47453 0.30778 0.00000
O38 O 0.92747 0.47374 0.33078 0.00000
O39 O 0.91575 0.49247 0.28906 0.00000
O40 O 0.83198 0.50681 0.33442 0.00000
O41 O 0.86909 0.49550 0.32334 0.00000
O42 O 0.83893 0.45058 0.34122 0.00000
C43 C 0.85788 0.44065 0.35163 0.00000
C44 C 0.80113 0.48313 0.27354 0.00000
C45 C 0.87556 0.44525 0.26701 0.00000
O46 O 0.79975 0.46601 0.29316 0.00000
O47 O 0.82079 0.49480 0.27036 0.00000
O48 O 0.89722 0.44299 0.27586 0.00000
O49 O 0.86110 0.45937 0.28006 0.00000
O50 O 0.87954 0.44448 0.34336 0.00000
Co51 Co 0.53243 0.89310 0.31297 0.00000
C52 C 0.51233 0.93218 0.30825 0.00000
C53 C 0.49029 0.85465 0.33629 0.00000
Co54 Co 0.52547 0.83458 0.30778 0.00000
O55 O 0.52626 0.92747 0.33078 0.00000
O56 O 0.50753 0.91576 0.28906 0.00000
O57 O 0.49319 0.83198 0.33442 0.00000
O58 O 0.50450 0.86909 0.32334 0.00000
O59 O 0.54942 0.83893 0.34122 0.00000
C60 C 0.55935 0.85789 0.35163 0.00000
C61 C 0.51687 0.80114 0.27354 0.00000
C62 C 0.55475 0.87557 0.26701 0.00000
O63 O 0.53399 0.79975 0.29316 0.00000
O64 O 0.50520 0.82079 0.27036 0.00000
O65 O 0.55701 0.89722 0.27586 0.00000
O66 O 0.54063 0.86111 0.28006 0.00000
O67 O 0.55552 0.87954 0.34336 0.00000
Co68 Co 0.10690 0.53243 0.31297 0.00000
C69 C 0.06782 0.51233 0.30825 0.00000
C70 C 0.14535 0.49030 0.33629 0.00000
Co71 Co 0.16542 0.52547 0.30778 0.00000
O72 O 0.07253 0.52626 0.33078 0.00000
O73 O 0.08425 0.50753 0.28906 0.00000
O74 O 0.16802 0.49320 0.33442 0.00000
O75 O 0.13091 0.50450 0.32334 0.00000
O76 O 0.16107 0.54942 0.34122 0.00000
C77 C 0.14212 0.55935 0.35163 0.00000
C78 C 0.19887 0.51687 0.27354 0.00000
C79 C 0.12444 0.55475 0.26701 0.00000
O80 O 0.20025 0.53399 0.29316 0.00000
O81 O 0.17921 0.50520 0.27036 0.00000
O82 O 0.10278 0.55701 0.27586 0.00000
O83 O 0.13890 0.54063 0.28006 0.00000
O84 O 0.12046 0.55552 0.34336 0.00000
Co85 Co 0.63538 0.44034 0.87911 0.00000
C86 C 0.59664 0.42449 0.86175 0.00000
C87 C 0.63902 0.49623 0.85214 0.00000
Co88 Co 0.68024 0.47653 0.86293 0.00000
O89 O 0.59959 0.43156 0.88919 0.00000
O90 O 0.61358 0.42725 0.84264 0.00000
O91 O 0.65892 0.50752 0.85109 0.00000
O92 O 0.63824 0.47397 0.85795 0.00000
O93 O 0.67714 0.47856 0.90786 0.00000
C94 C 0.66336 0.46734 0.92603 0.00000
C95 C 0.71374 0.48397 0.82834 0.00000
C96 C 0.67425 0.41687 0.86662 0.00000
O97 O 0.71645 0.48599 0.85709 0.00000
O98 O 0.69379 0.47638 0.81764 0.00000
O99 O 0.65528 0.40709 0.87700 0.00000
O100 O 0.67504 0.43916 0.86095 0.00000
O101 O 0.64706 0.45208 0.91927 0.00000
Co102 Co 0.63538 0.55966 0.12089 0.00000
C103 C 0.59664 0.57551 0.13825 0.00000
C104 C 0.63902 0.50377 0.14786 0.00000
Co105 Co 0.68024 0.52347 0.13707 0.00000
O106 O 0.59959 0.56844 0.11081 0.00000
O107 O 0.61358 0.57275 0.15736 0.00000
O108 O 0.65892 0.49248 0.14891 0.00000
O109 O 0.63824 0.52603 0.14205 0.00000
O110 O 0.67714 0.52144 0.09214 0.00000
C111 C 0.66336 0.53266 0.07397 0.00000
C112 C 0.71374 0.51603 0.17166 0.00000
C113 C 0.67425 0.58313 0.13338 0.00000
O114 O 0.71645 0.51401 0.14291 0.00000
O115 O 0.69379 0.52362 0.18236 0.00000
O116 O 0.65528 0.59291 0.12300 0.00000
O117 O 0.67504 0.56084 0.13905 0.00000
O118 O 0.64706 0.54792 0.08073 0.00000
Co119 Co 0.46757 0.89310 0.68703 0.00000
C120 C 0.48767 0.93218 0.69175 0.00000
C121 C 0.50970 0.85465 0.66371 0.00000
Co122 Co 0.47453 0.83458 0.69222 0.00000
O123 O 0.47374 0.92747 0.66922 0.00000
O124 O 0.49247 0.91576 0.71094 0.00000
O125 O 0.50680 0.83198 0.66558 0.00000
O126 O 0.49550 0.86909 0.67666 0.00000
O127 O 0.45058 0.83893 0.65878 0.00000
C128 C 0.44065 0.85789 0.64837 0.00000
C129 C 0.48313 0.80114 0.72646 0.00000
C130 C 0.44525 0.87557 0.73299 0.00000
O131 O 0.46601 0.79975 0.70684 0.00000
O132 O 0.49480 0.82079 0.72964 0.00000
O133 O 0.44299 0.89722 0.72414 0.00000
O134 O 0.45937 0.86111 0.71994 0.00000
O135 O 0.44448 0.87954 0.65664 0.00000
Co136 Co 0.34546 0.88783 0.46584 0.00000
C137 C 0.34284 0.92690 0.49118 0.00000
C138 C 0.36086 0.84823 0.51877 0.00000
Co139 Co 0.33832 0.82952 0.47370 0.00000
O140 O 0.36112 0.92144 0.47451 0.00000
O141 O 0.32656 0.91119 0.49634 0.00000
O142 O 0.35839 0.82568 0.51484 0.00000
O143 O 0.35167 0.86325 0.50078 0.00000
O144 O 0.36608 0.83276 0.44502 0.00000
C145 C 0.37565 0.85137 0.43318 0.00000
C146 C 0.30906 0.79736 0.48290 0.00000
C147 C 0.30864 0.87222 0.43625 0.00000
O148 O 0.32526 0.79535 0.46220 0.00000
O149 O 0.30704 0.81703 0.49757 0.00000
O150 O 0.31682 0.89353 0.43397 0.00000
O151 O 0.31792 0.85718 0.45415 0.00000
O152 O 0.36992 0.87329 0.43792 0.00000
Co153 Co 0.11217 0.65454 0.53416 0.00000
C154 C 0.07310 0.65716 0.50882 0.00000
C155 C 0.15177 0.63914 0.48123 0.00000
Co156 Co 0.17047 0.66168 0.52630 0.00000
O157 O 0.07856 0.63888 0.52548 0.00000
O158 O 0.08881 0.67344 0.50366 0.00000
O159 O 0.17432 0.64161 0.48516 0.00000
O160 O 0.13675 0.64833 0.49922 0.00000
O161 O 0.16724 0.63392 0.55498 0.00000
C162 C 0.14863 0.62435 0.56682 0.00000
C163 C 0.20264 0.69094 0.51710 0.00000
C164 C 0.12778 0.69136 0.56375 0.00000
O165 O 0.20465 0.67473 0.53780 0.00000
O166 O 0.18297 0.69296 0.50243 0.00000
O167 O 0.10647 0.68318 0.56603 0.00000
O168 O 0.14282 0.68208 0.54585 0.00000
O169 O 0.12671 0.63008 0.56208 0.00000
Co170 Co 0.65454 0.11217 0.46584 0.00000
C171 C 0.65716 0.07311 0.49118 0.00000
C172 C 0.63915 0.15178 0.51877 0.00000
Co173 Co 0.66169 0.17048 0.47370 0.00000
O174 O 0.63889 0.07856 0.47452 0.00000
O175 O 0.67344 0.08882 0.49634 0.00000
O176 O 0.64161 0.17433 0.51484 0.00000
O177 O 0.64834 0.13676 0.50078 0.00000
O178 O 0.63392 0.16724 0.44502 0.00000
C179 C 0.62435 0.14863 0.43318 0.00000
C180 C 0.69095 0.20265 0.48290 0.00000
C181 C 0.69136 0.12778 0.43625 0.00000
O182 O 0.67474 0.20465 0.46220 0.00000
O183 O 0.69296 0.18298 0.49757 0.00000
O184 O 0.68318 0.10647 0.43397 0.00000
O185 O 0.68209 0.14283 0.45415 0.00000
O186 O 0.63008 0.12671 0.43792 0.00000
Co187 Co 0.88783 0.65454 0.46584 0.00000
C188 C 0.92690 0.65716 0.49118 0.00000
C189 C 0.84823 0.63915 0.51877 0.00000
Co190 Co 0.82952 0.66169 0.47370 0.00000
O191 O 0.92144 0.63888 0.47452 0.00000
O192 O 0.91119 0.67344 0.49634 0.00000
O193 O 0.82568 0.64161 0.51484 0.00000
O194 O 0.86325 0.64833 0.50078 0.00000
O195 O 0.83276 0.63392 0.44502 0.00000
C196 C 0.85137 0.62435 0.43318 0.00000
C197 C 0.79736 0.69094 0.48290 0.00000
C198 C 0.87222 0.69136 0.43625 0.00000
O199 O 0.79535 0.67474 0.46220 0.00000
O200 O 0.81703 0.69296 0.49757 0.00000
O201 O 0.89353 0.68318 0.43397 0.00000
O202 O 0.85718 0.68209 0.45415 0.00000
O203 O 0.87329 0.63008 0.43792 0.00000
Co204 Co 0.11217 0.34546 0.46584 0.00000
C205 C 0.07310 0.34284 0.49118 0.00000
C206 C 0.15177 0.36085 0.51877 0.00000
Co207 Co 0.17048 0.33831 0.47370 0.00000
O208 O 0.07856 0.36112 0.47452 0.00000
O209 O 0.08882 0.32656 0.49634 0.00000
O210 O 0.17432 0.35839 0.51484 0.00000
O211 O 0.13675 0.35167 0.50078 0.00000
O212 O 0.16724 0.36608 0.44502 0.00000
C213 C 0.14863 0.37565 0.43318 0.00000
C214 C 0.20265 0.30906 0.48290 0.00000
C215 C 0.12778 0.30864 0.43625 0.00000
O216 O 0.20465 0.32526 0.46220 0.00000
O217 O 0.18297 0.30704 0.49757 0.00000
O218 O 0.10647 0.31682 0.43397 0.00000
O219 O 0.14282 0.31791 0.45415 0.00000
O220 O 0.12671 0.36992 0.43792 0.00000
Co221 Co 0.34546 0.11217 0.53416 0.00000
C222 C 0.34284 0.07310 0.50882 0.00000
C223 C 0.36085 0.15177 0.48123 0.00000
Co224 Co 0.33831 0.17048 0.52630 0.00000
O225 O 0.36112 0.07856 0.52548 0.00000
O226 O 0.32656 0.08882 0.50366 0.00000
O227 O 0.35839 0.17432 0.48516 0.00000
O228 O 0.35167 0.13675 0.49922 0.00000
O229 O 0.36608 0.16724 0.55498 0.00000
C230 C 0.37565 0.14863 0.56682 0.00000
C231 C 0.30906 0.20265 0.51710 0.00000
C232 C 0.30864 0.12778 0.56375 0.00000
O233 O 0.32526 0.20465 0.53780 0.00000
O234 O 0.30704 0.18297 0.50243 0.00000
O235 O 0.31682 0.10647 0.56603 0.00000
O236 O 0.31791 0.14282 0.54585 0.00000
O237 O 0.36992 0.12671 0.56208 0.00000
Co238 Co 0.88783 0.34546 0.53416 0.00000
C239 C 0.92689 0.34284 0.50882 0.00000
C240 C 0.84822 0.36085 0.48123 0.00000
Co241 Co 0.82952 0.33831 0.52630 0.00000
O242 O 0.92144 0.36111 0.52548 0.00000
O243 O 0.91118 0.32656 0.50366 0.00000
O244 O 0.82568 0.35839 0.48516 0.00000
O245 O 0.86325 0.35166 0.49922 0.00000
O246 O 0.83276 0.36608 0.55498 0.00000
C247 C 0.85137 0.37565 0.56682 0.00000
C248 C 0.79735 0.30905 0.51710 0.00000
C249 C 0.87222 0.30864 0.56375 0.00000
O250 O 0.79535 0.32526 0.53780 0.00000
O251 O 0.81703 0.30704 0.50243 0.00000
O252 O 0.89353 0.31682 0.56603 0.00000
O253 O 0.85718 0.31791 0.54585 0.00000
O254 O 0.87329 0.36992 0.56208 0.00000
Co255 Co 0.55966 0.63538 0.87911 0.00000
C256 C 0.57551 0.59664 0.86175 0.00000
C257 C 0.50377 0.63902 0.85214 0.00000
Co258 Co 0.52347 0.68024 0.86293 0.00000
O259 O 0.56844 0.59959 0.88919 0.00000
O260 O 0.57275 0.61358 0.84264 0.00000
O261 O 0.49248 0.65892 0.85109 0.00000
O262 O 0.52603 0.63824 0.85795 0.00000
O263 O 0.52144 0.67714 0.90786 0.00000
C264 C 0.53266 0.66336 0.92603 0.00000
C265 C 0.51603 0.71374 0.82834 0.00000
C266 C 0.58313 0.67425 0.86662 0.00000
O267 O 0.51401 0.71645 0.85709 0.00000
O268 O 0.52362 0.69379 0.81764 0.00000
O269 O 0.59291 0.65528 0.87700 0.00000
O270 O 0.56084 0.67504 0.86095 0.00000
O271 O 0.54792 0.64706 0.91927 0.00000
Co272 Co 0.44034 0.63538 0.12089 0.00000
C273 C 0.42449 0.59664 0.13825 0.00000
C274 C 0.49623 0.63902 0.14786 0.00000
Co275 Co 0.47653 0.68024 0.13707 0.00000
O276 O 0.43156 0.59959 0.11081 0.00000
O277 O 0.42725 0.61358 0.15736 0.00000
O278 O 0.50752 0.65892 0.14891 0.00000
O279 O 0.47397 0.63824 0.14205 0.00000
O280 O 0.47856 0.67714 0.09214 0.00000
C281 C 0.46734 0.66336 0.07397 0.00000
C282 C 0.48397 0.71374 0.17166 0.00000
C283 C 0.41687 0.67425 0.13338 0.00000
O284 O 0.48599 0.71645 0.14291 0.00000
O285 O 0.47638 0.69379 0.18236 0.00000
O286 O 0.40709 0.65528 0.12300 0.00000
O287 O 0.43916 0.67504 0.13905 0.00000
O288 O 0.45208 0.64706 0.08073 0.00000
Co289 Co 0.36462 0.44034 0.12089 0.00000
C290 C 0.40336 0.42449 0.13825 0.00000
C291 C 0.36098 0.49623 0.14786 0.00000
Co292 Co 0.31976 0.47653 0.13707 0.00000
O293 O 0.40041 0.43156 0.11081 0.00000
O294 O 0.38642 0.42725 0.15736 0.00000
O295 O 0.34108 0.50752 0.14891 0.00000
O296 O 0.36176 0.47397 0.14205 0.00000
O297 O 0.32286 0.47856 0.09214 0.00000
C298 C 0.33664 0.46734 0.07397 0.00000
C299 C 0.28626 0.48397 0.17166 0.00000
C300 C 0.32575 0.41687 0.13338 0.00000
O301 O 0.28355 0.48599 0.14291 0.00000
O302 O 0.30621 0.47638 0.18236 0.00000
O303 O 0.34472 0.40709 0.12300 0.00000
O304 O 0.32496 0.43916 0.13905 0.00000
O305 O 0.35294 0.45208 0.08073 0.00000
Co306 Co 0.55966 0.36462 0.12089 0.00000
C307 C 0.57551 0.40336 0.13825 0.00000
C308 C 0.50377 0.36098 0.14786 0.00000
Co309 Co 0.52347 0.31976 0.13707 0.00000
O310 O 0.56844 0.40041 0.11081 0.00000
O311 O 0.57275 0.38642 0.15736 0.00000
O312 O 0.49248 0.34108 0.14891 0.00000
O313 O 0.52603 0.36176 0.14205 0.00000
O314 O 0.52144 0.32286 0.09214 0.00000
C315 C 0.53266 0.33664 0.07397 0.00000
C316 C 0.51603 0.28626 0.17166 0.00000
C317 C 0.58313 0.32575 0.13338 0.00000
O318 O 0.51401 0.28355 0.14291 0.00000
O319 O 0.52362 0.30621 0.18236 0.00000
O320 O 0.59291 0.34472 0.12300 0.00000
O321 O 0.56084 0.32496 0.13905 0.00000
O322 O 0.54792 0.35294 0.08073 0.00000
Co323 Co 0.36462 0.55966 0.87911 0.00000
C324 C 0.40336 0.57551 0.86175 0.00000
C325 C 0.36098 0.50377 0.85214 0.00000
Co326 Co 0.31976 0.52347 0.86293 0.00000
O327 O 0.40041 0.56844 0.88919 0.00000
O328 O 0.38642 0.57275 0.84264 0.00000
O329 O 0.34108 0.49248 0.85109 0.00000
O330 O 0.36176 0.52603 0.85795 0.00000
O331 O 0.32286 0.52144 0.90786 0.00000
C332 C 0.33664 0.53266 0.92603 0.00000
C333 C 0.28626 0.51603 0.82834 0.00000
C334 C 0.32575 0.58313 0.86662 0.00000
O335 O 0.28355 0.51401 0.85709 0.00000
O336 O 0.30621 0.52362 0.81764 0.00000
O337 O 0.34472 0.59291 0.87700 0.00000
O338 O 0.32496 0.56084 0.86095 0.00000
O339 O 0.35294 0.54792 0.91927 0.00000
Co340 Co 0.44034 0.36462 0.87911 0.00000
C341 C 0.42449 0.40336 0.86175 0.00000
C342 C 0.49623 0.36098 0.85214 0.00000
Co343 Co 0.47653 0.31976 0.86293 0.00000
O344 O 0.43156 0.40041 0.88919 0.00000
O345 O 0.42725 0.38642 0.84264 0.00000
O346 O 0.50752 0.34108 0.85109 0.00000
O347 O 0.47397 0.36176 0.85795 0.00000
O348 O 0.47856 0.32286 0.90786 0.00000
C349 C 0.46734 0.33664 0.92603 0.00000
C350 C 0.48397 0.28626 0.82834 0.00000
C351 C 0.41687 0.32575 0.86662 0.00000
O352 O 0.48599 0.28355 0.85709 0.00000
O353 O 0.47638 0.30621 0.81764 0.00000
O354 O 0.40709 0.34472 0.87700 0.00000
O355 O 0.43916 0.32496 0.86095 0.00000
O356 O 0.45208 0.35294 0.91927 0.00000
Co357 Co 0.65454 0.88783 0.53416 0.00000
C358 C 0.65716 0.92689 0.50882 0.00000
C359 C 0.63915 0.84822 0.48123 0.00000
Co360 Co 0.66169 0.82952 0.52630 0.00000
O361 O 0.63888 0.92144 0.52549 0.00000
O362 O 0.67344 0.91118 0.50366 0.00000
O363 O 0.64161 0.82568 0.48516 0.00000
O364 O 0.64833 0.86324 0.49922 0.00000
O365 O 0.63392 0.83276 0.55498 0.00000
C366 C 0.62435 0.85137 0.56682 0.00000
C367 C 0.69094 0.79735 0.51710 0.00000
C368 C 0.69136 0.87222 0.56375 0.00000
O369 O 0.67474 0.79535 0.53780 0.00000
O370 O 0.69296 0.81702 0.50243 0.00000
O371 O 0.68318 0.89353 0.56603 0.00000
O372 O 0.68209 0.85718 0.54585 0.00000
O373 O 0.63008 0.87329 0.56208 0.00000
Co374 Co 0.10690 0.46757 0.68703 0.00000
C375 C 0.06782 0.48767 0.69175 0.00000
C376 C 0.14535 0.50971 0.66371 0.00000
Co377 Co 0.16542 0.47453 0.69222 0.00000
O378 O 0.07253 0.47374 0.66923 0.00000
O379 O 0.08425 0.49247 0.71094 0.00000
O380 O 0.16802 0.50681 0.66558 0.00000
O381 O 0.13091 0.49550 0.67666 0.00000
O382 O 0.16107 0.45058 0.65878 0.00000
C383 C 0.14212 0.44065 0.64837 0.00000
C384 C 0.19887 0.48313 0.72646 0.00000
C385 C 0.12444 0.44525 0.73299 0.00000
O386 O 0.20025 0.46601 0.70684 0.00000
O387 O 0.17921 0.49480 0.72964 0.00000
O388 O 0.10278 0.44299 0.72414 0.00000
O389 O 0.13890 0.45937 0.71994 0.00000
O390 O 0.12046 0.44448 0.65664 0.00000
Co391 Co 0.53243 0.10690 0.68703 0.00000
C392 C 0.51233 0.06782 0.69175 0.00000
C393 C 0.49029 0.14535 0.66371 0.00000
Co394 Co 0.52547 0.16542 0.69222 0.00000
O395 O 0.52626 0.07253 0.66922 0.00000
O396 O 0.50753 0.08424 0.71094 0.00000
O397 O 0.49319 0.16802 0.66558 0.00000
O398 O 0.50450 0.13091 0.67666 0.00000
O399 O 0.54942 0.16107 0.65878 0.00000
C400 C 0.55935 0.14211 0.64837 0.00000
C401 C 0.51687 0.19886 0.72646 0.00000
C402 C 0.55475 0.12443 0.73299 0.00000
O403 O 0.53399 0.20025 0.70684 0.00000
O404 O 0.50520 0.17921 0.72964 0.00000
O405 O 0.55701 0.10278 0.72414 0.00000
O406 O 0.54063 0.13889 0.71994 0.00000
O407 O 0.55552 0.12046 0.65664 0.00000
O408 O 0.85379 0.43469 0.55440 0.00000
C409 C 0.83594 0.39271 0.58037 0.00000
C410 C 0.85329 0.43319 0.58249 0.00000
C411 C 0.84281 0.41188 0.63004 0.00000
O412 O 0.85248 0.43123 0.67630 0.00000
H413 H 0.82174 0.38547 0.59100 0.00000
H414 H 0.83051 0.39777 0.55978 0.00000
H415 H 0.85169 0.39684 0.63596 0.00000
H416 H 0.82550 0.40962 0.63589 0.00000
C417 C 0.87032 0.47322 0.65033 0.00000
C418 C 0.85298 0.43274 0.64821 0.00000
C419 C 0.86345 0.45405 0.60066 0.00000
N420 N 0.84400 0.41415 0.59705 0.00000
N421 N 0.86227 0.45178 0.63366 0.00000
H422 H 0.88453 0.48046 0.63970 0.00000
H423 H 0.87575 0.46816 0.67092 0.00000
H424 H 0.85458 0.46909 0.59474 0.00000
H425 H 0.88076 0.45631 0.59482 0.00000
O426 O 0.52549 0.16693 0.40473 0.00000
C427 C 0.52128 0.13215 0.35997 0.00000
C428 C 0.54428 0.15733 0.39480 0.00000
C429 C 0.56572 0.12768 0.36232 0.00000
O430 O 0.60859 0.12681 0.36456 0.00000
H431 H 0.52194 0.11439 0.35579 0.00000
H432 H 0.50766 0.13509 0.37436 0.00000
H433 H 0.56582 0.12977 0.33989 0.00000
H434 H 0.56434 0.10998 0.36652 0.00000
C435 C 0.61279 0.16159 0.40933 0.00000
C436 C 0.58979 0.13641 0.37449 0.00000
C437 C 0.56835 0.16605 0.40697 0.00000
N438 N 0.54400 0.13963 0.37424 0.00000
N439 N 0.59007 0.15411 0.39505 0.00000
H440 H 0.61213 0.17935 0.41351 0.00000
H441 H 0.62641 0.15865 0.39494 0.00000
H442 H 0.56825 0.16397 0.42941 0.00000
H443 H 0.56973 0.18376 0.40278 0.00000
O444 O 0.87511 0.60808 0.36611 0.00000
C445 C 0.85726 0.60778 0.42459 0.00000
C446 C 0.86476 0.58948 0.37544 0.00000
C447 C 0.84458 0.56553 0.41558 0.00000
O448 O 0.83116 0.52600 0.40318 0.00000
H449 H 0.86016 0.60162 0.44550 0.00000
H450 H 0.87114 0.61849 0.41906 0.00000
H451 H 0.82820 0.57033 0.42306 0.00000
H452 H 0.85402 0.55969 0.43338 0.00000
C453 C 0.84901 0.52629 0.34470 0.00000
C454 C 0.84151 0.54459 0.39386 0.00000
C455 C 0.86169 0.56854 0.35371 0.00000
N456 N 0.85656 0.58723 0.40369 0.00000
N457 N 0.84970 0.54684 0.36560 0.00000
H458 H 0.84611 0.53245 0.32379 0.00000
H459 H 0.83512 0.51558 0.35023 0.00000
H460 H 0.87807 0.56374 0.34624 0.00000
H461 H 0.85224 0.57439 0.33592 0.00000
O462 O 0.40191 0.81729 0.36995 0.00000
C463 C 0.38445 0.85312 0.40791 0.00000
C464 C 0.41575 0.83409 0.37733 0.00000
C465 C 0.42432 0.87297 0.40321 0.00000
O466 O 0.46401 0.88898 0.39935 0.00000
H467 H 0.37857 0.87020 0.40874 0.00000
H468 H 0.37313 0.84378 0.39470 0.00000
H469 H 0.42467 0.87376 0.42577 0.00000
H470 H 0.41674 0.88828 0.39584 0.00000
C471 C 0.48148 0.85315 0.36138 0.00000
C472 C 0.45018 0.87218 0.39196 0.00000
C473 C 0.44161 0.83329 0.36608 0.00000
N474 N 0.40865 0.85273 0.39439 0.00000
N475 N 0.45728 0.85354 0.37490 0.00000
H476 H 0.48736 0.83607 0.36056 0.00000
H477 H 0.49280 0.86249 0.37459 0.00000
H478 H 0.44126 0.83251 0.34352 0.00000
H479 H 0.44919 0.81799 0.37345 0.00000
O480 O 0.10811 0.41217 0.41123 0.00000
C481 C 0.15326 0.39647 0.43013 0.00000
C482 C 0.12644 0.42129 0.39939 0.00000
C483 C 0.17091 0.42626 0.39485 0.00000
O484 O 0.18562 0.45376 0.35806 0.00000
H485 H 0.16770 0.40080 0.44258 0.00000
H486 H 0.13901 0.39540 0.44398 0.00000
H487 H 0.18106 0.41277 0.38673 0.00000
H488 H 0.18028 0.43412 0.41145 0.00000
C489 C 0.14048 0.46946 0.33916 0.00000
C490 C 0.16730 0.44464 0.36991 0.00000
C491 C 0.12283 0.43967 0.37444 0.00000
N492 N 0.14893 0.41568 0.40799 0.00000
N493 N 0.14481 0.45025 0.36131 0.00000
H494 H 0.12603 0.46513 0.32672 0.00000
H495 H 0.15473 0.47053 0.32532 0.00000
H496 H 0.11268 0.45316 0.38257 0.00000
H497 H 0.11345 0.43181 0.35785 0.00000
O498 O 0.57872 0.55337 0.90720 0.00000
C499 C 0.56967 0.58265 0.85767 0.00000
C500 C 0.59022 0.54958 0.88344 0.00000
C501 C 0.59927 0.55787 0.82954 0.00000
O502 O 0.62975 0.53433 0.80591 0.00000
H503 H 0.56149 0.58340 0.83757 0.00000
H504 H 0.55691 0.58008 0.87335 0.00000
H505 H 0.60729 0.57337 0.82355 0.00000
H506 H 0.58708 0.55394 0.81362 0.00000
C507 C 0.63879 0.50504 0.85543 0.00000
C508 C 0.61824 0.53811 0.82967 0.00000
C509 C 0.60920 0.52982 0.88357 0.00000
N510 N 0.58632 0.56202 0.85802 0.00000
N511 N 0.62215 0.52567 0.85509 0.00000
H512 H 0.64697 0.50429 0.87554 0.00000
H513 H 0.65155 0.50762 0.83975 0.00000
H514 H 0.60118 0.51433 0.88955 0.00000
H515 H 0.62138 0.53375 0.89948 0.00000
O516 O 0.60000 0.42692 0.19204 0.00000
C517 C 0.58951 0.40664 0.13632 0.00000
C518 C 0.60166 0.43989 0.16909 0.00000
C519 C 0.60014 0.44606 0.11362 0.00000
O520 O 0.60846 0.48539 0.09486 0.00000
H521 H 0.59678 0.40023 0.11728 0.00000
H522 H 0.59526 0.39625 0.15335 0.00000
H523 H 0.58432 0.44531 0.10270 0.00000
H524 H 0.61256 0.43840 0.10031 0.00000
C525 C 0.61895 0.50567 0.15057 0.00000
C526 C 0.60681 0.47242 0.11781 0.00000
C527 C 0.60832 0.46625 0.17328 0.00000
N528 N 0.59805 0.43144 0.14117 0.00000
N529 N 0.61042 0.48087 0.14572 0.00000
H530 H 0.61168 0.51208 0.16962 0.00000
H531 H 0.61321 0.51606 0.13354 0.00000
H532 H 0.62414 0.46699 0.18419 0.00000
H533 H 0.59590 0.47390 0.18659 0.00000
O534 O 0.64567 0.86867 0.41154 0.00000
C535 C 0.63386 0.84284 0.46311 0.00000
C536 C 0.62450 0.86127 0.41454 0.00000
C537 C 0.59271 0.83845 0.44201 0.00000
O538 O 0.55332 0.83757 0.42080 0.00000
H539 H 0.63047 0.82631 0.47120 0.00000
H540 H 0.65087 0.84299 0.45545 0.00000
H541 H 0.58649 0.84454 0.46181 0.00000
H542 H 0.59359 0.82044 0.44341 0.00000
C543 C 0.56513 0.86339 0.36922 0.00000
C544 C 0.57450 0.84496 0.41780 0.00000
C545 C 0.60628 0.86778 0.39032 0.00000
N546 N 0.61738 0.84774 0.43792 0.00000
N547 N 0.58161 0.85849 0.39441 0.00000
H548 H 0.56852 0.87993 0.36113 0.00000
H549 H 0.54812 0.86325 0.37689 0.00000
H550 H 0.61251 0.86169 0.37053 0.00000
H551 H 0.60540 0.88580 0.38893 0.00000
O552 O 0.10448 0.61384 0.44064 0.00000
C553 C 0.14556 0.63862 0.45883 0.00000
C554 C 0.12441 0.60767 0.42992 0.00000
C555 C 0.16874 0.61270 0.42378 0.00000
O556 O 0.18928 0.58515 0.39170 0.00000
H557 H 0.15775 0.65100 0.45260 0.00000
H558 H 0.12937 0.64669 0.45939 0.00000
H559 H 0.17988 0.60918 0.44103 0.00000
H560 H 0.17534 0.62710 0.41292 0.00000
C561 C 0.14821 0.56037 0.37350 0.00000
C562 C 0.16935 0.59132 0.40241 0.00000
C563 C 0.12502 0.58629 0.40855 0.00000
N564 N 0.14502 0.61924 0.43626 0.00000
N565 N 0.14874 0.57975 0.39607 0.00000
H566 H 0.13601 0.54799 0.37974 0.00000
H567 H 0.16439 0.55231 0.37295 0.00000
H568 H 0.11388 0.58981 0.39130 0.00000
H569 H 0.11842 0.57189 0.41941 0.00000
O570 O 0.40428 0.81277 0.61791 0.00000
C571 C 0.42116 0.85538 0.64329 0.00000
C572 C 0.40293 0.83176 0.60281 0.00000
C573 C 0.40794 0.87610 0.59669 0.00000
O574 O 0.39673 0.89347 0.54975 0.00000
H575 H 0.41613 0.87095 0.65288 0.00000
H576 H 0.41535 0.84188 0.65646 0.00000
H577 H 0.42451 0.88334 0.59568 0.00000
H578 H 0.39753 0.88751 0.60839 0.00000
C579 C 0.37985 0.85086 0.52437 0.00000
C580 C 0.39808 0.87448 0.56485 0.00000
C581 C 0.39306 0.83014 0.57097 0.00000
N582 N 0.40957 0.85333 0.61364 0.00000
N583 N 0.39144 0.85291 0.55402 0.00000
H584 H 0.38488 0.83529 0.51478 0.00000
H585 H 0.38566 0.86435 0.51120 0.00000
H586 H 0.37650 0.82289 0.57199 0.00000
H587 H 0.40348 0.81872 0.55927 0.00000
O588 O 0.17315 0.56004 0.66603 0.00000
C589 C 0.15017 0.51981 0.64211 0.00000
C590 C 0.16077 0.56258 0.64270 0.00000
C591 C 0.13550 0.54630 0.60108 0.00000
O592 O 0.12058 0.57403 0.56468 0.00000
H593 H 0.15074 0.50753 0.62556 0.00000
H594 H 0.16517 0.51791 0.65451 0.00000
H595 H 0.11892 0.53993 0.60537 0.00000
H596 H 0.14286 0.53565 0.58535 0.00000
C597 C 0.14356 0.61426 0.58859 0.00000
C598 C 0.13297 0.57149 0.58800 0.00000
C599 C 0.15823 0.58777 0.62962 0.00000
N600 N 0.14994 0.54407 0.62876 0.00000
N601 N 0.14379 0.59001 0.60194 0.00000
H602 H 0.14299 0.62654 0.60514 0.00000
H603 H 0.12856 0.61616 0.57619 0.00000
H604 H 0.17481 0.59414 0.62533 0.00000
H605 H 0.15087 0.59842 0.64536 0.00000
O606 O 0.41279 0.19122 0.61070 0.00000
C607 C 0.38411 0.15226 0.59426 0.00000
C608 C 0.42151 0.17046 0.61243 0.00000
C609 C 0.41829 0.12580 0.60849 0.00000
O610 O 0.45314 0.10252 0.62000 0.00000
H611 H 0.37431 0.13846 0.60219 0.00000
H612 H 0.37655 0.16759 0.60163 0.00000
H613 H 0.41648 0.11793 0.58827 0.00000
H614 H 0.40798 0.11658 0.62301 0.00000
C615 C 0.48181 0.14148 0.63645 0.00000
C616 C 0.44442 0.12327 0.61827 0.00000
C617 C 0.44764 0.16794 0.62222 0.00000
N618 N 0.40874 0.15052 0.60633 0.00000
N619 N 0.45719 0.14321 0.62438 0.00000
H620 H 0.49162 0.15527 0.62852 0.00000
H621 H 0.48937 0.12614 0.62908 0.00000
H622 H 0.44945 0.17580 0.64244 0.00000
H623 H 0.45795 0.17715 0.60769 0.00000
O624 O 0.37830 0.10562 0.43348 0.00000
C625 C 0.36135 0.14823 0.45880 0.00000
C626 C 0.38816 0.12503 0.42612 0.00000
C627 C 0.39149 0.16979 0.42760 0.00000
O628 O 0.42271 0.18814 0.39886 0.00000
H629 H 0.35152 0.16307 0.45486 0.00000
H630 H 0.35043 0.13391 0.45674 0.00000
H631 H 0.39683 0.17811 0.44651 0.00000
H632 H 0.37868 0.18005 0.41816 0.00000
C633 C 0.43965 0.14553 0.37354 0.00000
C634 C 0.41284 0.16873 0.40621 0.00000
C635 C 0.40951 0.12398 0.40474 0.00000
N636 N 0.38054 0.14656 0.43606 0.00000
N637 N 0.42046 0.14721 0.39628 0.00000
H638 H 0.44949 0.13070 0.37747 0.00000
H639 H 0.45058 0.15986 0.37559 0.00000
H640 H 0.40418 0.11565 0.38582 0.00000
H641 H 0.42232 0.11371 0.41417 0.00000
O642 O 0.59907 0.81862 0.63166 0.00000
C643 C 0.61543 0.85359 0.59173 0.00000
C644 C 0.58477 0.83480 0.62351 0.00000
C645 C 0.57508 0.87255 0.59571 0.00000
O646 O 0.53500 0.88764 0.59905 0.00000
H647 H 0.62086 0.87078 0.58997 0.00000
H648 H 0.62705 0.84500 0.60532 0.00000
H649 H 0.57462 0.87257 0.57313 0.00000
H650 H 0.58229 0.88828 0.60222 0.00000
C651 C 0.51864 0.85267 0.63898 0.00000
C652 C 0.54930 0.87146 0.60719 0.00000
C653 C 0.55899 0.83371 0.63500 0.00000
N654 N 0.59132 0.85303 0.60544 0.00000
N655 N 0.54276 0.85323 0.62526 0.00000
H656 H 0.51321 0.83549 0.64074 0.00000
H657 H 0.50702 0.86126 0.62539 0.00000
H658 H 0.55945 0.83370 0.65758 0.00000
H659 H 0.55178 0.81798 0.62849 0.00000
O660 O 0.46223 0.63662 0.81152 0.00000
C661 C 0.50365 0.62141 0.84125 0.00000
C662 C 0.46014 0.62175 0.83252 0.00000
C663 C 0.47739 0.59476 0.87179 0.00000
O664 O 0.45007 0.57184 0.90158 0.00000
H665 H 0.51532 0.60773 0.84351 0.00000
H666 H 0.50455 0.62721 0.81990 0.00000
H667 H 0.48536 0.60180 0.89007 0.00000
H668 H 0.48687 0.58014 0.86583 0.00000
C669 C 0.40866 0.58705 0.87185 0.00000
C670 C 0.45217 0.58672 0.88058 0.00000
C671 C 0.43492 0.61370 0.84132 0.00000
N672 N 0.47913 0.61253 0.84724 0.00000
N673 N 0.43317 0.59593 0.86586 0.00000
H674 H 0.39698 0.60073 0.86959 0.00000
H675 H 0.40776 0.58125 0.89321 0.00000
H676 H 0.42695 0.60666 0.82304 0.00000
H677 H 0.42544 0.62833 0.84728 0.00000
O678 O 0.56628 0.60213 0.08933 0.00000
C679 C 0.58220 0.57013 0.13322 0.00000
C680 C 0.55642 0.60263 0.11464 0.00000
C681 C 0.55068 0.58702 0.16669 0.00000
O682 O 0.52141 0.60634 0.19757 0.00000
H683 H 0.57823 0.55484 0.14418 0.00000
H684 H 0.58407 0.56611 0.11133 0.00000
H685 H 0.56365 0.58925 0.18218 0.00000
H686 H 0.54343 0.57068 0.17002 0.00000
C687 C 0.50549 0.63833 0.15367 0.00000
C688 C 0.53127 0.60584 0.17225 0.00000
C689 C 0.53702 0.62144 0.12020 0.00000
N690 N 0.56210 0.58718 0.13676 0.00000
N691 N 0.52559 0.62128 0.15013 0.00000
H692 H 0.50946 0.65363 0.14271 0.00000
H693 H 0.50363 0.64235 0.17556 0.00000
H694 H 0.52404 0.61921 0.10471 0.00000
H695 H 0.54427 0.63778 0.11688 0.00000
O696 O 0.37721 0.57943 0.10865 0.00000
C697 C 0.42521 0.58424 0.12569 0.00000
C698 C 0.38639 0.56341 0.12482 0.00000
C699 C 0.42117 0.54490 0.15168 0.00000
O700 O 0.41433 0.50826 0.17825 0.00000
H701 H 0.44200 0.57828 0.12183 0.00000
H702 H 0.41921 0.59197 0.10670 0.00000
H703 H 0.42810 0.55293 0.16998 0.00000
H704 H 0.43496 0.53791 0.14001 0.00000
C705 C 0.36632 0.50346 0.16121 0.00000
C706 C 0.40515 0.52429 0.16207 0.00000
C707 C 0.37037 0.54280 0.13521 0.00000
N708 N 0.40966 0.56359 0.13301 0.00000
N709 N 0.38188 0.52411 0.15388 0.00000
H710 H 0.34954 0.50942 0.16507 0.00000
H711 H 0.37233 0.49572 0.18019 0.00000
H712 H 0.36344 0.53477 0.11691 0.00000
H713 H 0.35657 0.54978 0.14688 0.00000
O714 O 0.45605 0.44457 0.14041 0.00000
C715 C 0.41211 0.42241 0.15237 0.00000
C716 C 0.45536 0.42206 0.14186 0.00000
C717 C 0.43385 0.38337 0.15118 0.00000
O718 O 0.45626 0.34696 0.14648 0.00000
H719 H 0.40237 0.41406 0.16827 0.00000
H720 H 0.41525 0.43931 0.15940 0.00000
H721 H 0.42122 0.37761 0.13670 0.00000
H722 H 0.42818 0.37919 0.17195 0.00000
C723 C 0.50020 0.36912 0.13453 0.00000
C724 C 0.45694 0.36948 0.14503 0.00000
C725 C 0.47846 0.40817 0.13571 0.00000
N726 N 0.43527 0.40983 0.14887 0.00000
N727 N 0.47703 0.38171 0.13802 0.00000
H728 H 0.50993 0.37747 0.11862 0.00000
H729 H 0.49706 0.35223 0.12749 0.00000
H730 H 0.49109 0.41393 0.15020 0.00000
H731 H 0.48413 0.41235 0.11494 0.00000
O732 O 0.37611 0.46874 0.80297 0.00000
C733 C 0.38049 0.50507 0.84576 0.00000
C734 C 0.38502 0.46360 0.82803 0.00000
C735 C 0.39959 0.47479 0.87915 0.00000
O736 O 0.41543 0.44356 0.91014 0.00000
H737 H 0.39217 0.51623 0.85589 0.00000
H738 H 0.38034 0.50910 0.82375 0.00000
H739 H 0.38783 0.47991 0.89507 0.00000
H740 H 0.41438 0.48500 0.88153 0.00000
C741 C 0.41104 0.40724 0.86735 0.00000
C742 C 0.40652 0.44871 0.88507 0.00000
C743 C 0.39194 0.43752 0.83395 0.00000
N744 N 0.38887 0.48010 0.84956 0.00000
N745 N 0.40267 0.43220 0.86355 0.00000
H746 H 0.39937 0.39608 0.85722 0.00000
H747 H 0.41119 0.40320 0.88936 0.00000
H748 H 0.40371 0.43240 0.81803 0.00000
H749 H 0.37716 0.42731 0.83158 0.00000
O750 O 0.51591 0.38913 0.90591 0.00000
C751 C 0.50499 0.36126 0.85570 0.00000
C752 C 0.52835 0.39176 0.88265 0.00000
C753 C 0.53965 0.38073 0.83019 0.00000
O754 O 0.57178 0.40241 0.80720 0.00000
H755 H 0.51020 0.34698 0.84348 0.00000
H756 H 0.50087 0.35537 0.87642 0.00000
H757 H 0.52841 0.38439 0.81310 0.00000
H758 H 0.54730 0.36473 0.82589 0.00000
C759 C 0.58270 0.43028 0.85741 0.00000
C760 C 0.55934 0.39978 0.83046 0.00000
C761 C 0.54804 0.41081 0.88291 0.00000
N762 N 0.52517 0.37837 0.85783 0.00000
N763 N 0.56252 0.41317 0.85528 0.00000
H764 H 0.57750 0.44456 0.86962 0.00000
H765 H 0.58683 0.43617 0.83669 0.00000
H766 H 0.55929 0.40714 0.90001 0.00000
H767 H 0.54039 0.42681 0.88722 0.00000
O768 O 0.81678 0.36847 0.42417 0.00000
C769 C 0.84572 0.37795 0.47388 0.00000
C770 C 0.83380 0.38309 0.42131 0.00000
C771 C 0.86801 0.40702 0.44191 0.00000
O772 O 0.88946 0.43254 0.40817 0.00000
H773 H 0.84936 0.39006 0.49000 0.00000
H774 H 0.82862 0.37249 0.47664 0.00000
H775 H 0.88319 0.39872 0.44852 0.00000
H776 H 0.86490 0.42049 0.45643 0.00000
C777 C 0.86051 0.42305 0.35846 0.00000
C778 C 0.87243 0.41792 0.41102 0.00000
C779 C 0.83822 0.39399 0.39043 0.00000
N780 N 0.84802 0.38964 0.44432 0.00000
N781 N 0.85821 0.41137 0.38802 0.00000
H782 H 0.85687 0.41094 0.34233 0.00000
H783 H 0.87761 0.42852 0.35569 0.00000
H784 H 0.82304 0.40229 0.38381 0.00000
H785 H 0.84133 0.38052 0.37590 0.00000
O786 O 0.15045 0.35207 0.59060 0.00000
C787 C 0.15859 0.37024 0.53317 0.00000
C788 C 0.14887 0.37434 0.58657 0.00000
C789 C 0.15220 0.41103 0.55454 0.00000
O790 O 0.14331 0.44894 0.57706 0.00000
H791 H 0.17051 0.37898 0.52017 0.00000
H792 H 0.16616 0.35463 0.53959 0.00000
H793 H 0.14037 0.41385 0.53782 0.00000
H794 H 0.16837 0.41660 0.54727 0.00000
C795 C 0.13517 0.43077 0.63450 0.00000
C796 C 0.14490 0.42667 0.58110 0.00000
C797 C 0.14157 0.38998 0.61312 0.00000
N798 N 0.15356 0.38487 0.56004 0.00000
N799 N 0.14021 0.41614 0.60763 0.00000
H800 H 0.12326 0.42202 0.64749 0.00000
H801 H 0.12761 0.44638 0.62808 0.00000
H802 H 0.15340 0.38716 0.62985 0.00000
H803 H 0.12540 0.38441 0.62040 0.00000
O804 O 0.59622 0.18353 0.54370 0.00000
C805 C 0.62077 0.14249 0.52490 0.00000
C806 C 0.59819 0.16627 0.56165 0.00000
C807 C 0.61109 0.12453 0.57454 0.00000
O808 O 0.60277 0.11023 0.62397 0.00000
H809 H 0.61872 0.12543 0.51787 0.00000
H810 H 0.61273 0.15329 0.50982 0.00000
H811 H 0.62868 0.12056 0.57643 0.00000
H812 H 0.60302 0.11034 0.56485 0.00000
C813 C 0.57823 0.15128 0.64277 0.00000
C814 C 0.60080 0.12750 0.60601 0.00000
C815 C 0.58790 0.16924 0.59313 0.00000
N816 N 0.60872 0.14534 0.55416 0.00000
N817 N 0.59027 0.14842 0.61350 0.00000
H818 H 0.58027 0.16834 0.64979 0.00000
H819 H 0.58626 0.14048 0.65785 0.00000
H820 H 0.57031 0.17321 0.59123 0.00000
H821 H 0.59597 0.18342 0.60281 0.00000
O822 O 0.88254 0.61012 0.63069 0.00000
C823 C 0.86259 0.56412 0.62986 0.00000
C824 C 0.86879 0.60458 0.60947 0.00000
C825 C 0.84321 0.57525 0.58155 0.00000
O826 O 0.82369 0.58888 0.53698 0.00000
H827 H 0.86355 0.54784 0.62013 0.00000
H828 H 0.87832 0.56715 0.64036 0.00000
H829 H 0.82762 0.56948 0.59046 0.00000
H830 H 0.85078 0.56119 0.57099 0.00000
C831 C 0.84364 0.63487 0.53780 0.00000
C832 C 0.83745 0.59442 0.55819 0.00000
C833 C 0.86303 0.62375 0.58612 0.00000
N834 N 0.85921 0.58251 0.60641 0.00000
N835 N 0.84703 0.61648 0.56126 0.00000
H836 H 0.84269 0.65115 0.54754 0.00000
H837 H 0.82792 0.63184 0.52730 0.00000
H838 H 0.87862 0.62952 0.57720 0.00000
H839 H 0.85545 0.63781 0.59668 0.00000
O840 O 0.02147 0.48243 0.64019 0.00000
C841 C 0.04798 0.48015 0.69324 0.00000
C842 C 0.01220 0.49045 0.66382 0.00000
C843 C 0.01264 0.49810 0.71903 0.00000
O844 O 0.97853 0.51757 0.74060 0.00000
H845 H 0.04979 0.47136 0.71282 0.00000
H846 H 0.05106 0.46834 0.67658 0.00000
H847 H 0.02402 0.51029 0.72778 0.00000
H848 H 0.01173 0.48428 0.73353 0.00000
C849 C 0.95202 0.51985 0.68756 0.00000
C850 C 0.98780 0.50955 0.71698 0.00000
C851 C 0.98736 0.50190 0.66176 0.00000
N852 N 0.02312 0.48914 0.69070 0.00000
N853 N 0.97688 0.51086 0.69010 0.00000
H854 H 0.95021 0.52864 0.66797 0.00000
H855 H 0.94894 0.53166 0.70422 0.00000
H856 H 0.97598 0.48971 0.65302 0.00000
H857 H 0.98827 0.51572 0.64727 0.00000
O858 O 0.49853 0.97522 0.25706 0.00000
C859 C 0.49727 0.94810 0.30968 0.00000
C860 C 0.49927 0.98602 0.28177 0.00000
C861 C 0.49814 0.98671 0.33778 0.00000
O862 O 0.50147 0.02478 0.36214 0.00000
H863 H 0.48680 0.94294 0.32690 0.00000
H864 H 0.48991 0.94168 0.29067 0.00000
H865 H 0.51189 0.97983 0.34969 0.00000
H866 H 0.48289 0.98256 0.34872 0.00000
C867 C 0.50273 0.05190 0.30952 0.00000
C868 C 0.50073 0.01398 0.33743 0.00000
C869 C 0.50186 0.01329 0.28143 0.00000
N870 N 0.49765 0.97459 0.30828 0.00000
N871 N 0.50235 0.02541 0.31092 0.00000
H872 H 0.51320 0.05706 0.29230 0.00000
H873 H 0.51009 0.05832 0.32853 0.00000
H874 H 0.48811 0.02017 0.26951 0.00000
H875 H 0.51711 0.01744 0.27048 0.00000
O876 O 0.02991 0.46899 0.33837 0.00000
C877 C 0.04907 0.51357 0.32264 0.00000
C878 C 0.01668 0.48375 0.32495 0.00000
C879 C 0.00879 0.52404 0.30226 0.00000
O880 O 0.97009 0.53101 0.28084 0.00000
H881 H 0.04936 0.53114 0.32797 0.00000
H882 H 0.05581 0.50436 0.34015 0.00000
H883 H 0.01721 0.52893 0.28322 0.00000
H884 H 0.00774 0.53870 0.31539 0.00000
C885 C 0.95093 0.48643 0.29656 0.00000
C886 C 0.98332 0.51625 0.29426 0.00000
C887 C 0.99121 0.47596 0.31694 0.00000
N888 N 0.02395 0.50607 0.31769 0.00000
N889 N 0.97605 0.49393 0.30151 0.00000
H890 H 0.95064 0.46886 0.29123 0.00000
H891 H 0.94419 0.49564 0.27905 0.00000
H892 H 0.98279 0.47107 0.33598 0.00000
H893 H 0.99226 0.46130 0.30381 0.00000
O894 O 0.66820 0.54883 0.99799 0.00000
C895 C 0.67906 0.52762 0.05305 0.00000
C896 C 0.66799 0.52633 0.99990 0.00000
C897 C 0.67433 0.48800 0.02790 0.00000
O898 O 0.66693 0.45116 0.00201 0.00000
H899 H 0.69183 0.51880 0.06462 0.00000
H900 H 0.68554 0.54400 0.04792 0.00000
H901 H 0.66319 0.48343 0.04476 0.00000
H902 H 0.69100 0.48294 0.03393 0.00000
C903 C 0.65607 0.47238 0.94695 0.00000
C904 C 0.66714 0.47367 0.00010 0.00000
C905 C 0.66079 0.51200 0.97210 0.00000
N906 N 0.67406 0.51445 0.02501 0.00000
N907 N 0.66107 0.48555 0.97499 0.00000
H908 H 0.64330 0.48120 0.93538 0.00000
H909 H 0.64959 0.45600 0.95208 0.00000
H910 H 0.67194 0.51657 0.95524 0.00000
H911 H 0.64413 0.51706 0.96607 0.00000
O912 O 0.50098 0.02436 0.74326 0.00000
C913 C 0.49729 0.05190 0.69117 0.00000
C914 C 0.50057 0.01375 0.71841 0.00000
C915 C 0.49684 0.01352 0.66258 0.00000
O916 O 0.49902 0.97564 0.63754 0.00000
H917 H 0.48603 0.05719 0.67480 0.00000
H918 H 0.49082 0.05816 0.71076 0.00000
H919 H 0.51001 0.02049 0.64977 0.00000
H920 H 0.48110 0.01775 0.65281 0.00000
C921 C 0.50271 0.94810 0.68963 0.00000
C922 C 0.49943 0.98624 0.66239 0.00000
C923 C 0.50316 0.98648 0.71822 0.00000
N924 N 0.49772 0.02540 0.69220 0.00000
N925 N 0.50228 0.97460 0.68859 0.00000
H926 H 0.51397 0.94280 0.70600 0.00000
H927 H 0.50918 0.94184 0.67004 0.00000
H928 H 0.48999 0.97951 0.73103 0.00000
H929 H 0.51890 0.98225 0.72799 0.00000
O930 O 0.37677 0.97401 0.53225 0.00000
C931 C 0.35301 0.94998 0.48601 0.00000
C932 C 0.36164 0.98539 0.51694 0.00000
C933 C 0.33244 0.98859 0.47456 0.00000
O934 O 0.31211 0.02599 0.46775 0.00000
H935 H 0.35215 0.94791 0.46362 0.00000
H936 H 0.36940 0.94454 0.49276 0.00000
H937 H 0.31685 0.97940 0.47521 0.00000
H938 H 0.33830 0.98828 0.45323 0.00000
C939 C 0.33587 0.05002 0.51399 0.00000
C940 C 0.32724 0.01461 0.48307 0.00000
C941 C 0.35644 0.01142 0.52544 0.00000
N942 N 0.35011 0.97567 0.49334 0.00000
N943 N 0.33877 0.02433 0.50666 0.00000
H944 H 0.33673 0.05209 0.53638 0.00000
H945 H 0.31948 0.05546 0.50724 0.00000
H946 H 0.37203 0.02060 0.52479 0.00000
H947 H 0.35058 0.01172 0.54677 0.00000
O948 O 0.97451 0.69285 0.52326 0.00000
C949 C 0.94871 0.65138 0.50912 0.00000
C950 C 0.98564 0.67529 0.51236 0.00000
C951 C 0.98754 0.63301 0.49367 0.00000
O952 O 0.02549 0.61827 0.47674 0.00000
H953 H 0.94505 0.63449 0.51574 0.00000
H954 H 0.94276 0.66262 0.52517 0.00000
H955 H 0.97945 0.62850 0.47426 0.00000
H956 H 0.98528 0.61920 0.50795 0.00000
C957 C 0.05128 0.65974 0.49088 0.00000
C958 C 0.01436 0.63584 0.48764 0.00000
C959 C 0.01246 0.67811 0.50633 0.00000
N960 N 0.97497 0.65417 0.50613 0.00000
N961 N 0.02503 0.65695 0.49387 0.00000
H962 H 0.05495 0.67663 0.48426 0.00000
H963 H 0.05724 0.64850 0.47483 0.00000
H964 H 0.02055 0.68262 0.52574 0.00000
H965 H 0.01472 0.69191 0.49205 0.00000
O966 O 0.67308 0.02147 0.44976 0.00000
C967 C 0.66663 0.05078 0.49989 0.00000
C968 C 0.66493 0.01222 0.47334 0.00000
C969 C 0.65302 0.01430 0.52731 0.00000
O970 O 0.63804 0.97853 0.55024 0.00000
H971 H 0.67340 0.05519 0.52008 0.00000
H972 H 0.67900 0.05500 0.48428 0.00000
H973 H 0.63844 0.02379 0.53350 0.00000
H974 H 0.66558 0.01665 0.54326 0.00000
C975 C 0.64450 0.94922 0.50011 0.00000
C976 C 0.64619 0.98778 0.52665 0.00000
C977 C 0.65810 0.98570 0.47269 0.00000
N978 N 0.66225 0.02464 0.49902 0.00000
N979 N 0.64887 0.97536 0.50098 0.00000
H980 H 0.63772 0.94481 0.47992 0.00000
H981 H 0.63213 0.94500 0.51572 0.00000
H982 H 0.67269 0.97621 0.46650 0.00000
H983 H 0.64554 0.98335 0.45674 0.00000
O984 O 0.97726 0.38189 0.52700 0.00000
C985 C 0.95019 0.34034 0.51778 0.00000
C986 C 0.98711 0.36425 0.51449 0.00000
C987 C 0.98698 0.32185 0.49607 0.00000
O988 O 0.02274 0.30699 0.47300 0.00000
H989 H 0.94729 0.32350 0.52514 0.00000
H990 H 0.94603 0.35169 0.53458 0.00000
H991 H 0.97685 0.31723 0.47826 0.00000
H992 H 0.98630 0.30814 0.51074 0.00000
C993 C 0.04981 0.34854 0.48221 0.00000
C994 C 0.01289 0.32463 0.48551 0.00000
C995 C 0.01302 0.36703 0.50393 0.00000
N996 N 0.97587 0.34310 0.51034 0.00000
N997 N 0.02413 0.34578 0.48966 0.00000
H998 H 0.05271 0.36538 0.47486 0.00000
H999 H 0.05396 0.33719 0.46542 0.00000
H1000 H 0.02315 0.37165 0.52174 0.00000
H1001 H 0.01370 0.38074 0.48926 0.00000
O1002 O 0.45120 0.66953 0.99802 0.00000
C1003 C 0.47269 0.67909 0.05328 0.00000
C1004 C 0.47369 0.66870 0.99990 0.00000
C1005 C 0.51218 0.67364 0.02803 0.00000
O1006 O 0.54880 0.66560 0.00198 0.00000
H1007 H 0.48185 0.69147 0.06512 0.00000
H1008 H 0.45649 0.68607 0.04829 0.00000
H1009 H 0.51644 0.66216 0.04466 0.00000
H1010 H 0.51767 0.69009 0.03440 0.00000
C1011 C 0.52731 0.65603 0.94672 0.00000
C1012 C 0.52630 0.66643 0.00010 0.00000
C1013 C 0.48782 0.66149 0.97197 0.00000
N1014 N 0.48572 0.67411 0.02514 0.00000
N1015 N 0.51428 0.66102 0.97486 0.00000
H1016 H 0.51815 0.64366 0.93488 0.00000
H1017 H 0.54351 0.64905 0.95171 0.00000
H1018 H 0.48356 0.67297 0.95534 0.00000
H1019 H 0.48233 0.64504 0.96560 0.00000
O1020 O 0.29581 0.46903 0.01167 0.00000
C1021 C 0.32534 0.48130 0.05987 0.00000
C1022 C 0.31298 0.48321 0.00713 0.00000
C1023 C 0.34765 0.50795 0.02480 0.00000
O1024 O 0.36906 0.53097 0.98833 0.00000
H1025 H 0.32928 0.49435 0.07469 0.00000
H1026 H 0.30821 0.47624 0.06341 0.00000
H1027 H 0.36280 0.49992 0.03201 0.00000
H1028 H 0.34483 0.52235 0.03798 0.00000
C1029 C 0.33953 0.51870 0.94013 0.00000
C1030 C 0.35190 0.51679 0.99287 0.00000
C1031 C 0.31722 0.49205 0.97520 0.00000
N1032 N 0.32749 0.49103 0.02921 0.00000
N1033 N 0.33738 0.50897 0.97079 0.00000
H1034 H 0.33559 0.50565 0.92531 0.00000
H1035 H 0.35666 0.52376 0.93659 0.00000
H1036 H 0.30207 0.50008 0.96799 0.00000
H1037 H 0.32004 0.47765 0.96202 0.00000
O1038 O 0.53463 0.36617 0.00887 0.00000
C1039 C 0.53503 0.32665 0.04737 0.00000
C1040 C 0.51886 0.35026 0.00555 0.00000
C1041 C 0.50019 0.31080 0.01857 0.00000
O1042 O 0.46537 0.29870 0.99113 0.00000
H1043 H 0.53922 0.30911 0.04899 0.00000
H1044 H 0.55030 0.33573 0.04309 0.00000
H1045 H 0.49177 0.30863 0.03838 0.00000
H1046 H 0.50890 0.29538 0.01405 0.00000
C1047 C 0.46497 0.33823 0.95263 0.00000
C1048 C 0.48114 0.31461 0.99445 0.00000
C1049 C 0.49981 0.35408 0.98143 0.00000
N1050 N 0.51826 0.33005 0.02209 0.00000
N1051 N 0.48174 0.33482 0.97791 0.00000
H1052 H 0.46078 0.35577 0.95101 0.00000
H1053 H 0.44970 0.32914 0.95691 0.00000
H1054 H 0.50823 0.35624 0.96162 0.00000
H1055 H 0.49110 0.36949 0.98595 0.00000
O1056 O 0.72805 0.53319 0.79987 0.00000
C1057 C 0.72697 0.48821 0.82747 0.00000
C1058 C 0.74117 0.51680 0.78955 0.00000
C1059 C 0.75816 0.47526 0.79092 0.00000
O1060 O 0.78623 0.46432 0.75277 0.00000
H1061 H 0.73599 0.47708 0.84124 0.00000
H1062 H 0.72283 0.50312 0.83918 0.00000
H1063 H 0.74760 0.46103 0.78639 0.00000
H1064 H 0.76939 0.47039 0.80751 0.00000
C1065 C 0.78731 0.50930 0.72516 0.00000
C1066 C 0.77311 0.48071 0.76309 0.00000
C1067 C 0.75612 0.52225 0.76172 0.00000
N1068 N 0.74270 0.49489 0.80217 0.00000
N1069 N 0.77158 0.50262 0.75046 0.00000
H1070 H 0.77829 0.52043 0.71140 0.00000
H1071 H 0.79145 0.49440 0.71346 0.00000
H1072 H 0.76668 0.53649 0.76625 0.00000
H1073 H 0.74489 0.52712 0.74513 0.00000
O1074 O 0.52882 0.23397 0.27280 0.00000
C1075 C 0.49545 0.19871 0.25713 0.00000
C1076 C 0.51569 0.23747 0.25032 0.00000
C1077 C 0.48437 0.22442 0.21364 0.00000
O1078 O 0.47367 0.25175 0.17456 0.00000
H1079 H 0.49193 0.18536 0.24257 0.00000
H1080 H 0.51045 0.19428 0.26848 0.00000
H1081 H 0.46715 0.22263 0.22021 0.00000
H1082 H 0.48785 0.21106 0.19909 0.00000
C1083 C 0.50704 0.28701 0.19023 0.00000
C1084 C 0.48680 0.24825 0.19704 0.00000
C1085 C 0.51812 0.26130 0.23372 0.00000
N1086 N 0.49988 0.22106 0.24022 0.00000
N1087 N 0.50261 0.26465 0.20714 0.00000
H1088 H 0.51056 0.30036 0.20479 0.00000
H1089 H 0.49204 0.29143 0.17888 0.00000
H1090 H 0.53534 0.26309 0.22715 0.00000
H1091 H 0.51464 0.27466 0.24827 0.00000
O1092 O 0.71315 0.48033 0.22859 0.00000
C1093 C 0.72253 0.50522 0.17554 0.00000
C1094 C 0.73323 0.49031 0.22555 0.00000
C1095 C 0.76339 0.51343 0.19571 0.00000
O1096 O 0.80113 0.52215 0.21877 0.00000
H1097 H 0.73140 0.50453 0.15590 0.00000
H1098 H 0.71057 0.49166 0.17579 0.00000
H1099 H 0.76048 0.53086 0.19086 0.00000
H1100 H 0.77121 0.50593 0.17766 0.00000
C1101 C 0.79175 0.49726 0.27182 0.00000
C1102 C 0.78105 0.51217 0.22182 0.00000
C1103 C 0.75089 0.48906 0.25165 0.00000
N1104 N 0.73981 0.50176 0.20026 0.00000
N1105 N 0.77447 0.50073 0.24710 0.00000
H1106 H 0.78288 0.49796 0.29147 0.00000
H1107 H 0.80371 0.51083 0.27157 0.00000
H1108 H 0.75380 0.47162 0.25650 0.00000
H1109 H 0.74307 0.49656 0.26970 0.00000
O1110 O 0.54467 0.75951 0.24433 0.00000
C1111 C 0.51050 0.78691 0.27479 0.00000
C1112 C 0.52329 0.75896 0.23538 0.00000
C1113 C 0.47997 0.77018 0.23980 0.00000
O1114 O 0.45284 0.75477 0.20303 0.00000
H1115 H 0.49678 0.78616 0.28945 0.00000
H1116 H 0.52539 0.78115 0.28542 0.00000
H1117 H 0.47472 0.78722 0.23597 0.00000
H1118 H 0.47004 0.76387 0.25692 0.00000
C1119 C 0.48701 0.72737 0.17257 0.00000
C1120 C 0.47422 0.75533 0.21198 0.00000
C1121 C 0.51754 0.74410 0.20756 0.00000
N1122 N 0.50538 0.77066 0.24944 0.00000
N1123 N 0.49213 0.74362 0.19793 0.00000
H1124 H 0.50073 0.72812 0.15791 0.00000
H1125 H 0.47212 0.73313 0.16194 0.00000
H1126 H 0.52280 0.72706 0.21139 0.00000
H1127 H 0.52747 0.75041 0.19044 0.00000
O1128 O 0.25407 0.51226 0.28060 0.00000
C1129 C 0.20599 0.50132 0.26928 0.00000
C1130 C 0.24818 0.50605 0.25455 0.00000
C1131 C 0.21816 0.49165 0.21698 0.00000
O1132 O 0.23165 0.48525 0.16676 0.00000
H1133 H 0.19429 0.48781 0.26589 0.00000
H1134 H 0.21280 0.49946 0.29007 0.00000
H1135 H 0.20481 0.50257 0.21014 0.00000
H1136 H 0.21129 0.47498 0.21857 0.00000
C1137 C 0.27973 0.49619 0.17808 0.00000
C1138 C 0.23754 0.49146 0.19281 0.00000
C1139 C 0.26756 0.50587 0.23039 0.00000
N1140 N 0.22569 0.49937 0.24727 0.00000
N1141 N 0.26003 0.49814 0.20009 0.00000
H1142 H 0.29143 0.50970 0.18147 0.00000
H1143 H 0.27292 0.49805 0.15730 0.00000
H1144 H 0.28091 0.49494 0.23722 0.00000
H1145 H 0.27443 0.52253 0.22879 0.00000
O1146 O 0.50903 0.75154 0.71651 0.00000
C1147 C 0.49892 0.79801 0.73635 0.00000
C1148 C 0.50524 0.75482 0.74396 0.00000
C1149 C 0.49711 0.78131 0.78805 0.00000
O1150 O 0.49346 0.76274 0.83613 0.00000
H1151 H 0.50577 0.81238 0.74704 0.00000
H1152 H 0.50863 0.79540 0.71758 0.00000
H1153 H 0.48108 0.78955 0.79016 0.00000
H1154 H 0.50974 0.79286 0.79528 0.00000
C1155 C 0.50357 0.71627 0.81629 0.00000
C1156 C 0.49725 0.75946 0.80867 0.00000
C1157 C 0.50538 0.73297 0.76459 0.00000
N1158 N 0.50132 0.77671 0.75583 0.00000
N1159 N 0.50117 0.73757 0.79681 0.00000
H1160 H 0.49672 0.70190 0.80560 0.00000
H1161 H 0.49386 0.71889 0.83506 0.00000
H1162 H 0.52140 0.72473 0.76248 0.00000
H1163 H 0.49275 0.72142 0.75736 0.00000
O1164 O 0.24324 0.71509 0.45405 0.00000
C1165 C 0.21163 0.71645 0.50260 0.00000
C1166 C 0.24811 0.72861 0.47575 0.00000
C1167 C 0.23842 0.74728 0.52525 0.00000
O1168 O 0.26678 0.77489 0.54595 0.00000
H1169 H 0.19873 0.72621 0.51268 0.00000
H1170 H 0.20566 0.71197 0.48203 0.00000
H1171 H 0.23840 0.73721 0.54401 0.00000
H1172 H 0.22480 0.75908 0.52700 0.00000
C1173 C 0.29839 0.77354 0.49740 0.00000
C1174 C 0.26190 0.76137 0.52425 0.00000
C1175 C 0.27160 0.74270 0.47475 0.00000
N1176 N 0.23344 0.73131 0.49950 0.00000
N1177 N 0.27658 0.75867 0.50050 0.00000
H1178 H 0.31128 0.76377 0.48732 0.00000
H1179 H 0.30435 0.77801 0.51797 0.00000
H1180 H 0.27162 0.75277 0.45599 0.00000
H1181 H 0.28522 0.73091 0.47300 0.00000
O1182 O 0.74868 0.27738 0.55403 0.00000
C1183 C 0.77265 0.29875 0.50597 0.00000
C1184 C 0.74747 0.26752 0.52875 0.00000
C1185 C 0.75619 0.26614 0.47381 0.00000
O1186 O 0.74131 0.23264 0.44597 0.00000
H1187 H 0.77044 0.30858 0.48725 0.00000
H1188 H 0.76714 0.30875 0.52348 0.00000
H1189 H 0.77310 0.26340 0.46652 0.00000
H1190 H 0.74851 0.27810 0.45988 0.00000
C1191 C 0.71733 0.21127 0.49403 0.00000
C1192 C 0.74251 0.24250 0.47125 0.00000
C1193 C 0.73379 0.24387 0.52619 0.00000
N1194 N 0.75749 0.27705 0.50399 0.00000
N1195 N 0.73249 0.23296 0.49601 0.00000
H1196 H 0.71954 0.20143 0.51276 0.00000
H1197 H 0.72284 0.20127 0.47652 0.00000
H1198 H 0.71689 0.24661 0.53348 0.00000
H1199 H 0.74147 0.23191 0.54012 0.00000
O1200 O 0.72475 0.75064 0.55506 0.00000
C1201 C 0.70125 0.77249 0.50697 0.00000
C1202 C 0.73361 0.74851 0.52931 0.00000
C1203 C 0.73271 0.75503 0.47388 0.00000
O1204 O 0.76524 0.73934 0.44494 0.00000
H1205 H 0.69070 0.76944 0.48904 0.00000
H1206 H 0.69201 0.76760 0.52540 0.00000
H1207 H 0.73498 0.77165 0.46539 0.00000
H1208 H 0.72030 0.74671 0.46120 0.00000
C1209 C 0.78874 0.71750 0.49303 0.00000
C1210 C 0.75638 0.74147 0.47070 0.00000
C1211 C 0.75727 0.73495 0.52612 0.00000
N1212 N 0.72300 0.75745 0.50458 0.00000
N1213 N 0.76699 0.73253 0.49542 0.00000
H1214 H 0.79928 0.72054 0.51096 0.00000
H1215 H 0.79798 0.72239 0.47460 0.00000
H1216 H 0.75501 0.71833 0.53461 0.00000
H1217 H 0.76968 0.74328 0.53880 0.00000
O1218 O 0.26804 0.30203 0.49679 0.00000
C1219 C 0.21932 0.29252 0.50558 0.00000
C1220 C 0.26132 0.28053 0.49827 0.00000
C1221 C 0.22990 0.24910 0.50613 0.00000
O1222 O 0.24198 0.20798 0.50321 0.00000
H1223 H 0.20702 0.28729 0.52077 0.00000
H1224 H 0.22653 0.30808 0.51277 0.00000
H1225 H 0.21686 0.24668 0.49076 0.00000
H1226 H 0.22240 0.24688 0.52646 0.00000
C1227 C 0.29070 0.21750 0.49442 0.00000
C1228 C 0.24870 0.22948 0.50173 0.00000
C1229 C 0.28012 0.26092 0.49387 0.00000
N1230 N 0.23841 0.27418 0.50383 0.00000
N1231 N 0.27160 0.23583 0.49617 0.00000
H1232 H 0.30300 0.22272 0.47923 0.00000
H1233 H 0.28349 0.20194 0.48723 0.00000
H1234 H 0.29316 0.26333 0.50924 0.00000
H1235 H 0.28762 0.26314 0.47354 0.00000
O1236 O 0.22379 0.45631 0.77923 0.00000
C1237 C 0.21367 0.48296 0.72774 0.00000
C1238 C 0.23220 0.47718 0.77712 0.00000
C1239 C 0.23912 0.51546 0.74915 0.00000
O1240 O 0.26193 0.54618 0.77341 0.00000
H1241 H 0.22052 0.48898 0.70826 0.00000
H1242 H 0.21369 0.46488 0.72704 0.00000
H1243 H 0.22534 0.52674 0.74518 0.00000
H1244 H 0.24971 0.51563 0.73088 0.00000
C1245 C 0.27205 0.51953 0.82489 0.00000
C1246 C 0.25352 0.52531 0.77552 0.00000
C1247 C 0.24660 0.48703 0.80349 0.00000
N1248 N 0.22923 0.49096 0.75260 0.00000
N1249 N 0.25649 0.51153 0.80003 0.00000
H1250 H 0.26520 0.51351 0.84438 0.00000
H1251 H 0.27203 0.53761 0.82560 0.00000
H1252 H 0.26038 0.47575 0.80746 0.00000
H1253 H 0.23601 0.48686 0.82176 0.00000
O1254 O 0.46561 0.22475 0.73761 0.00000
C1255 C 0.50757 0.19802 0.74541 0.00000
C1256 C 0.48138 0.23258 0.75522 0.00000
C1257 C 0.52048 0.22893 0.78236 0.00000
O1258 O 0.53190 0.26097 0.81503 0.00000
H1259 H 0.51632 0.18690 0.75945 0.00000
H1260 H 0.49219 0.18989 0.73922 0.00000
H1261 H 0.53608 0.22989 0.77098 0.00000
H1262 H 0.52256 0.21646 0.79849 0.00000
C1263 C 0.48994 0.28769 0.80722 0.00000
C1264 C 0.51613 0.25313 0.79742 0.00000
C1265 C 0.47703 0.25679 0.77028 0.00000
N1266 N 0.50168 0.22044 0.76148 0.00000
N1267 N 0.49583 0.26528 0.79116 0.00000
H1268 H 0.48119 0.29882 0.79319 0.00000
H1269 H 0.50532 0.29583 0.81341 0.00000
H1270 H 0.46143 0.25583 0.78166 0.00000
H1271 H 0.47495 0.26926 0.75415 0.00000
loop_
_geom_bond_atom_site_label_1
_geom_bond_atom_site_label_2
_geom_bond_distance
_geom_bond_site_symmetry_2
_ccdc_geom_bond_type
Co0 O4 2.065 . S
Co0 O5 2.120 . S
Co0 O7 2.067 . S
Co0 O14 2.123 . S
Co0 O15 2.313 . S
Co0 O16 1.981 . S
C1 O4 1.274 . A
C1 O5 1.259 . A
C2 O6 1.254 . D
C2 O7 1.246 . S
Co3 O6 2.123 . S
Co3 O7 2.313 . S
Co3 O8 1.981 . S
Co3 O12 2.065 . S
Co3 O13 2.120 . S
Co3 O15 2.067 . S
O8 C9 1.257 . A
C9 O16 1.257 . A
C10 O12 1.274 . A
C10 O13 1.259 . A
C11 O14 1.253 . D
C11 O15 1.246 . S
Co17 O21 2.065 . S
Co17 O22 2.120 . S
Co17 O24 2.067 . S
Co17 O31 2.123 . S
Co17 O32 2.313 . S
Co17 O33 1.981 . S
C18 O21 1.274 . A
C18 O22 1.259 . A
C19 O23 1.254 . D
C19 O24 1.246 . S
Co20 O23 2.123 . S
Co20 O24 2.313 . S
Co20 O25 1.981 . S
Co20 O29 2.065 . S
Co20 O30 2.120 . S
Co20 O32 2.067 . S
O25 C26 1.257 . A
C26 O33 1.257 . A
C27 O29 1.274 . A
C27 O30 1.259 . A
C28 O31 1.253 . D
C28 O32 1.246 . S
Co34 O38 2.065 . S
Co34 O39 2.120 . S
Co34 O41 2.067 . S
Co34 O48 2.123 . S
Co34 O49 2.313 . S
Co34 O50 1.981 . S
C35 O38 1.274 . A
C35 O39 1.259 . A
C36 O40 1.254 . D
C36 O41 1.246 . S
Co37 O40 2.123 . S
Co37 O41 2.313 . S
Co37 O42 1.981 . S
Co37 O46 2.065 . S
Co37 O47 2.120 . S
Co37 O49 2.067 . S
O42 C43 1.257 . A
C43 O50 1.257 . A
C44 O46 1.274 . A
C44 O47 1.259 . A
C45 O48 1.253 . D
C45 O49 1.246 . S
Co51 O55 2.065 . S
Co51 O56 2.120 . S
Co51 O58 2.067 . S
Co51 O65 2.123 . S
Co51 O66 2.313 . S
Co51 O67 1.981 . S
C52 O55 1.274 . A
C52 O56 1.259 . A
C53 O57 1.254 . D
C53 O58 1.246 . S
Co54 O57 2.123 . S
Co54 O58 2.313 . S
Co54 O59 1.981 . S
Co54 O63 2.065 . S
Co54 O64 2.120 . S
Co54 O66 2.067 . S
O59 C60 1.257 . A
C60 O67 1.257 . A
C61 O63 1.274 . A
C61 O64 1.259 . A
C62 O65 1.253 . D
C62 O66 1.246 . S
Co68 O72 2.065 . S
Co68 O73 2.120 . S
Co68 O75 2.067 . S
Co68 O82 2.123 . S
Co68 O83 2.313 . S
Co68 O84 1.981 . S
C69 O72 1.274 . A
C69 O73 1.259 . A
C70 O74 1.254 . D
C70 O75 1.246 . S
Co71 O74 2.123 . S
Co71 O75 2.313 . S
Co71 O76 1.981 . S
Co71 O80 2.065 . S
Co71 O81 2.120 . S
Co71 O83 2.067 . S
O76 C77 1.257 . A
C77 O84 1.257 . A
C78 O80 1.274 . A
C78 O81 1.259 . A
C79 O82 1.253 . D
C79 O83 1.246 . S
Co85 O89 2.065 . S
Co85 O90 2.120 . S
Co85 O92 2.067 . S
Co85 O99 2.123 . S
Co85 O100 2.313 . S
Co85 O101 1.981 . S
C86 O89 1.274 . A
C86 O90 1.259 . A
C87 O91 1.254 . D
C87 O92 1.246 . S
Co88 O91 2.123 . S
Co88 O92 2.313 . S
Co88 O93 1.981 . S
Co88 O97 2.065 . S
Co88 O98 2.120 . S
Co88 O100 2.067 . S
O93 C94 1.257 . A
C94 O101 1.257 . A
C95 O97 1.274 . A
C95 O98 1.259 . A
C96 O99 1.253 . D
C96 O100 1.246 . S
Co102 O106 2.065 . S
Co102 O107 2.120 . S
Co102 O109 2.067 . S
Co102 O116 2.123 . S
Co102 O117 2.313 . S
Co102 O118 1.981 . S
C103 O106 1.274 . A
C103 O107 1.259 . A
C104 O108 1.254 . D
C104 O109 1.246 . S
Co105 O108 2.123 . S
Co105 O109 2.313 . S
Co105 O110 1.981 . S
Co105 O114 2.065 . S
Co105 O115 2.120 . S
Co105 O117 2.067 . S
O110 C111 1.257 . A
C111 O118 1.257 . A
C112 O114 1.274 . A
C112 O115 1.259 . A
C113 O116 1.253 . D
C113 O117 1.246 . S
Co119 O123 2.065 . S
Co119 O124 2.120 . S
Co119 O126 2.067 . S
Co119 O133 2.123 . S
Co119 O134 2.313 . S
Co119 O135 1.981 . S
C120 O123 1.274 . A
C120 O124 1.259 . A
C121 O125 1.254 . D
C121 O126 1.246 . S
Co122 O125 2.123 . S
Co122 O126 2.313 . S
Co122 O127 1.981 . S
Co122 O131 2.065 . S
Co122 O132 2.120 . S
Co122 O134 2.067 . S
O127 C128 1.257 . A
C128 O135 1.257 . A
C129 O131 1.274 . A
C129 O132 1.259 . A
C130 O133 1.253 . D
C130 O134 1.246 . S
Co136 O140 2.065 . S
Co136 O141 2.120 . S
Co136 O143 2.067 . S
Co136 O150 2.123 . S
Co136 O151 2.313 . S
Co136 O152 1.981 . S
C137 O140 1.274 . A
C137 O141 1.259 . A
C138 O142 1.254 . D
C138 O143 1.246 . S
Co139 O142 2.123 . S
Co139 O143 2.313 . S
Co139 O144 1.981 . S
Co139 O148 2.065 . S
Co139 O149 2.120 . S
Co139 O151 2.067 . S
O144 C145 1.257 . A
C145 O152 1.257 . A
C146 O148 1.274 . A
C146 O149 1.259 . A
C147 O150 1.253 . D
C147 O151 1.246 . S
Co153 O157 2.065 . S
Co153 O158 2.120 . S
Co153 O160 2.067 . S
Co153 O167 2.123 . S
Co153 O168 2.313 . S
Co153 O169 1.981 . S
C154 O157 1.274 . A
C154 O158 1.259 . A
C155 O159 1.254 . D
C155 O160 1.246 . S
Co156 O159 2.123 . S
Co156 O160 2.313 . S
Co156 O161 1.981 . S
Co156 O165 2.065 . S
Co156 O166 2.120 . S
Co156 O168 2.067 . S
O161 C162 1.257 . A
C162 O169 1.257 . A
C163 O165 1.274 . A
C163 O166 1.259 . A
C164 O167 1.253 . D
C164 O168 1.246 . S
Co170 O174 2.065 . S
Co170 O175 2.120 . S
Co170 O177 2.067 . S
Co170 O184 2.123 . S
Co170 O185 2.313 . S
Co170 O186 1.981 . S
C171 O174 1.274 . A
C171 O175 1.259 . A
C172 O176 1.254 . D
C172 O177 1.246 . S
Co173 O176 2.123 . S
Co173 O177 2.313 . S
Co173 O178 1.981 . S
Co173 O182 2.065 . S
Co173 O183 2.120 . S
Co173 O185 2.067 . S
O178 C179 1.257 . A
C179 O186 1.257 . A
C180 O182 1.274 . A
C180 O183 1.259 . A
C181 O184 1.253 . D
C181 O185 1.246 . S
Co187 O191 2.065 . S
Co187 O192 2.120 . S
Co187 O194 2.067 . S
Co187 O201 2.123 . S
Co187 O202 2.313 . S
Co187 O203 1.981 . S
C188 O191 1.274 . A
C188 O192 1.259 . A
C189 O193 1.254 . D
C189 O194 1.246 . S
Co190 O193 2.123 . S
Co190 O194 2.313 . S
Co190 O195 1.981 . S
Co190 O199 2.065 . S
Co190 O200 2.120 . S
Co190 O202 2.067 . S
O195 C196 1.257 . A
C196 O203 1.257 . A
C197 O199 1.274 . A
C197 O200 1.259 . A
C198 O201 1.253 . D
C198 O202 1.246 . S
Co204 O208 2.065 . S
Co204 O209 2.120 . S
Co204 O211 2.067 . S
Co204 O218 2.123 . S
Co204 O219 2.313 . S
Co204 O220 1.981 . S
C205 O208 1.274 . A
C205 O209 1.259 . A
C206 O210 1.254 . D
C206 O211 1.246 . S
Co207 O210 2.123 . S
Co207 O211 2.313 . S
Co207 O212 1.981 . S
Co207 O216 2.065 . S
Co207 O217 2.120 . S
Co207 O219 2.067 . S
O212 C213 1.257 . A
C213 O220 1.257 . A
C214 O216 1.274 . A
C214 O217 1.259 . A
C215 O218 1.253 . D
C215 O219 1.246 . S
Co221 O225 2.065 . S
Co221 O226 2.120 . S
Co221 O228 2.067 . S
Co221 O235 2.123 . S
Co221 O236 2.313 . S
Co221 O237 1.981 . S
C222 O225 1.274 . A
C222 O226 1.259 . A
C223 O227 1.254 . D
C223 O228 1.246 . S
Co224 O227 2.123 . S
Co224 O228 2.313 . S
Co224 O229 1.981 . S
Co224 O233 2.065 . S
Co224 O234 2.120 . S
Co224 O236 2.067 . S
O229 C230 1.257 . A
C230 O237 1.257 . A
C231 O233 1.274 . A
C231 O234 1.259 . A
C232 O235 1.253 . D
C232 O236 1.246 . S
Co238 O242 2.065 . S
Co238 O243 2.120 . S
Co238 O245 2.067 . S
Co238 O252 2.123 . S
Co238 O253 2.313 . S
Co238 O254 1.981 . S
C239 O242 1.274 . A
C239 O243 1.259 . A
C240 O244 1.254 . D
C240 O245 1.246 . S
Co241 O244 2.123 . S
Co241 O245 2.313 . S
Co241 O246 1.981 . S
Co241 O250 2.065 . S
Co241 O251 2.120 . S
Co241 O253 2.067 . S
O246 C247 1.257 . A
C247 O254 1.257 . A
C248 O250 1.274 . A
C248 O251 1.259 . A
C249 O252 1.253 . D
C249 O253 1.246 . S
Co255 O259 2.065 . S
Co255 O260 2.120 . S
Co255 O262 2.067 . S
Co255 O269 2.123 . S
Co255 O270 2.313 . S
Co255 O271 1.981 . S
C256 O259 1.274 . A
C256 O260 1.259 . A
C257 O261 1.254 . D
C257 O262 1.246 . S
Co258 O261 2.123 . S
Co258 O262 2.313 . S
Co258 O263 1.981 . S
Co258 O267 2.065 . S
Co258 O268 2.120 . S
Co258 O270 2.067 . S
O263 C264 1.257 . A
C264 O271 1.257 . A
C265 O267 1.274 . A
C265 O268 1.259 . A
C266 O269 1.253 . D
C266 O270 1.246 . S
Co272 O276 2.065 . S
Co272 O277 2.120 . S
Co272 O279 2.067 . S
Co272 O286 2.123 . S
Co272 O287 2.313 . S
Co272 O288 1.981 . S
C273 O276 1.274 . A
C273 O277 1.259 . A
C274 O278 1.254 . D
C274 O279 1.246 . S
Co275 O278 2.123 . S
Co275 O279 2.313 . S
Co275 O280 1.981 . S
Co275 O284 2.065 . S
Co275 O285 2.120 . S
Co275 O287 2.067 . S
O280 C281 1.257 . A
C281 O288 1.257 . A
C282 O284 1.274 . A
C282 O285 1.259 . A
C283 O286 1.253 . D
C283 O287 1.246 . S
Co289 O293 2.065 . S
Co289 O294 2.120 . S
Co289 O296 2.067 . S
Co289 O303 2.123 . S
Co289 O304 2.313 . S
Co289 O305 1.981 . S
C290 O293 1.274 . A
C290 O294 1.259 . A
C291 O295 1.254 . D
C291 O296 1.246 . S
Co292 O295 2.123 . S
Co292 O296 2.313 . S
Co292 O297 1.981 . S
Co292 O301 2.065 . S
Co292 O302 2.120 . S
Co292 O304 2.067 . S
O297 C298 1.257 . A
C298 O305 1.257 . A
C299 O301 1.274 . A
C299 O302 1.259 . A
C300 O303 1.253 . D
C300 O304 1.246 . S
Co306 O310 2.065 . S
Co306 O311 2.120 . S
Co306 O313 2.067 . S
Co306 O320 2.123 . S
Co306 O321 2.313 . S
Co306 O322 1.981 . S
C307 O310 1.274 . A
C307 O311 1.259 . A
C308 O312 1.254 . D
C308 O313 1.246 . S
Co309 O312 2.123 . S
Co309 O313 2.313 . S
Co309 O314 1.981 . S
Co309 O318 2.065 . S
Co309 O319 2.120 . S
Co309 O321 2.067 . S
O314 C315 1.257 . A
C315 O322 1.257 . A
C316 O318 1.274 . A
C316 O319 1.259 . A
C317 O320 1.253 . D
C317 O321 1.246 . S
Co323 O327 2.065 . S
Co323 O328 2.120 . S
Co323 O330 2.067 . S
Co323 O337 2.123 . S
Co323 O338 2.313 . S
Co323 O339 1.981 . S
C324 O327 1.274 . A
C324 O328 1.259 . A
C325 O329 1.254 . D
C325 O330 1.246 . S
Co326 O329 2.123 . S
Co326 O330 2.313 . S
Co326 O331 1.981 . S
Co326 O335 2.065 . S
Co326 O336 2.120 . S
Co326 O338 2.067 . S
O331 C332 1.257 . A
C332 O339 1.257 . A
C333 O335 1.274 . A
C333 O336 1.259 . A
C334 O337 1.253 . D
C334 O338 1.246 . S
Co340 O344 2.065 . S
Co340 O345 2.120 . S
Co340 O347 2.067 . S
Co340 O354 2.123 . S
Co340 O355 2.313 . S
Co340 O356 1.981 . S
C341 O344 1.274 . A
C341 O345 1.259 . A
C342 O346 1.254 . D
C342 O347 1.246 . S
Co343 O346 2.123 . S
Co343 O347 2.313 . S
Co343 O348 1.981 . S
Co343 O352 2.065 . S
Co343 O353 2.120 . S
Co343 O355 2.067 . S
O348 C349 1.257 . A
C349 O356 1.257 . A
C350 O352 1.274 . A
C350 O353 1.259 . A
C351 O354 1.253 . D
C351 O355 1.246 . S
Co357 O361 2.065 . S
Co357 O362 2.120 . S
Co357 O364 2.067 . S
Co357 O371 2.123 . S
Co357 O372 2.313 . S
Co357 O373 1.981 . S
C358 O361 1.274 . A
C358 O362 1.259 . A
C359 O363 1.254 . D
C359 O364 1.246 . S
Co360 O363 2.123 . S
Co360 O364 2.313 . S
Co360 O365 1.981 . S
Co360 O369 2.065 . S
Co360 O370 2.120 . S
Co360 O372 2.067 . S
O365 C366 1.257 . A
C366 O373 1.257 . A
C367 O369 1.274 . A
C367 O370 1.259 . A
C368 O371 1.253 . D
C368 O372 1.246 . S
Co374 O378 2.065 . S
Co374 O379 2.120 . S
Co374 O381 2.067 . S
Co374 O388 2.123 . S
Co374 O389 2.313 . S
Co374 O390 1.981 . S
C375 O378 1.274 . A
C375 O379 1.259 . A
C376 O380 1.254 . D
C376 O381 1.246 . S
Co377 O380 2.123 . S
Co377 O381 2.313 . S
Co377 O382 1.981 . S
Co377 O386 2.065 . S
Co377 O387 2.120 . S
Co377 O389 2.067 . S
O382 C383 1.257 . A
C383 O390 1.257 . A
C384 O386 1.274 . A
C384 O387 1.259 . A
C385 O388 1.253 . D
C385 O389 1.246 . S
Co391 O395 2.065 . S
Co391 O396 2.120 . S
Co391 O398 2.067 . S
Co391 O405 2.123 . S
Co391 O406 2.313 . S
Co391 O407 1.981 . S
C392 O395 1.274 . A
C392 O396 1.259 . A
C393 O397 1.254 . D
C393 O398 1.246 . S
Co394 O397 2.123 . S
Co394 O398 2.313 . S
Co394 O399 1.981 . S
Co394 O403 2.065 . S
Co394 O404 2.120 . S
Co394 O406 2.067 . S
O399 C400 1.257 . A
C400 O407 1.257 . A
C401 O403 1.274 . A
C401 O404 1.259 . A
C402 O405 1.253 . D
C402 O406 1.246 . S
O408 C410 1.235 . D
C409 H413 0.990 . S
C409 H414 0.990 . S
C409 N420 1.451 . S
C410 C419 1.500 . S
C410 N420 1.324 . S
C411 H415 0.990 . S
C411 H416 0.989 . S
C411 C418 1.500 . S
C411 N420 1.454 . S
O412 C418 1.235 . D
H414 C409 0.990 . S
C417 N421 1.451 . S
C417 H422 0.990 . S
C417 H423 0.990 . S
C418 N421 1.324 . S
C419 N421 1.454 . S
C419 H424 0.990 . S
C419 H425 0.989 . S
H423 C417 0.990 . S
O426 C428 1.235 . D
C427 H431 0.990 . S
C427 H432 0.990 . S
C427 N438 1.451 . S
C428 C437 1.500 . S
C428 N438 1.324 . S
C429 H433 0.990 . S
C429 H434 0.989 . S
C429 C436 1.500 . S
C429 N438 1.454 . S
O430 C436 1.235 . D
H432 C427 0.990 . S
C435 N439 1.451 . S
C435 H440 0.990 . S
C435 H441 0.990 . S
C436 N439 1.324 . S
C437 N439 1.454 . S
C437 H442 0.990 . S
C437 H443 0.989 . S
H441 C435 0.990 . S
O444 C446 1.235 . D
C445 H449 0.990 . S
C445 H450 0.990 . S
C445 N456 1.451 . S
C446 C455 1.500 . S
C446 N456 1.324 . S
C447 H451 0.990 . S
C447 H452 0.989 . S
C447 C454 1.500 . S
C447 N456 1.454 . S
O448 C454 1.235 . D
H450 C445 0.990 . S
C453 N457 1.451 . S
C453 H458 0.990 . S
C453 H459 0.990 . S
C454 N457 1.324 . S
C455 N457 1.454 . S
C455 H460 0.990 . S
C455 H461 0.989 . S
H459 C453 0.990 . S
O462 C464 1.235 . D
C463 H467 0.990 . S
C463 H468 0.990 . S
C463 N474 1.451 . S
C464 C473 1.500 . S
C464 N474 1.324 . S
C465 H469 0.990 . S
C465 H470 0.989 . S
C465 C472 1.500 . S
C465 N474 1.454 . S
O466 C472 1.235 . D
H468 C463 0.990 . S
C471 N475 1.451 . S
C471 H476 0.990 . S
C471 H477 0.990 . S
C472 N475 1.324 . S
C473 N475 1.454 . S
C473 H478 0.990 . S
C473 H479 0.989 . S
H477 C471 0.990 . S
O480 C482 1.235 . D
C481 H485 0.990 . S
C481 H486 0.990 . S
C481 N492 1.451 . S
C482 C491 1.500 . S
C482 N492 1.324 . S
C483 H487 0.990 . S
C483 H488 0.989 . S
C483 C490 1.500 . S
C483 N492 1.454 . S
O484 C490 1.235 . D
H486 C481 0.990 . S
C489 N493 1.451 . S
C489 H494 0.990 . S
C489 H495 0.990 . S
C490 N493 1.324 . S
C491 N493 1.454 . S
C491 H496 0.990 . S
C491 H497 0.989 . S
H495 C489 0.990 . S
O498 C500 1.235 . D
C499 H503 0.990 . S
C499 H504 0.990 . S
C499 N510 1.451 . S
C500 C509 1.500 . S
C500 N510 1.324 . S
C501 H505 0.990 . S
C501 H506 0.989 . S
C501 C508 1.500 . S
C501 N510 1.454 . S
O502 C508 1.235 . D
H504 C499 0.990 . S
C507 N511 1.451 . S
C507 H512 0.990 . S
C507 H513 0.990 . S
C508 N511 1.324 . S
C509 N511 1.454 . S
C509 H514 0.990 . S
C509 H515 0.989 . S
H513 C507 0.990 . S
O516 C518 1.235 . D
C517 H521 0.990 . S
C517 H522 0.990 . S
C517 N528 1.451 . S
C518 C527 1.500 . S
C518 N528 1.324 . S
C519 H523 0.990 . S
C519 H524 0.989 . S
C519 C526 1.500 . S
C519 N528 1.454 . S
O520 C526 1.235 . D
H522 C517 0.990 . S
C525 N529 1.451 . S
C525 H530 0.990 . S
C525 H531 0.990 . S
C526 N529 1.324 . S
C527 N529 1.454 . S
C527 H532 0.990 . S
C527 H533 0.989 . S
H531 C525 0.990 . S
O534 C536 1.235 . D
C535 H539 0.990 . S
C535 H540 0.990 . S
C535 N546 1.451 . S
C536 C545 1.500 . S
C536 N546 1.324 . S
C537 H541 0.990 . S
C537 H542 0.989 . S
C537 C544 1.500 . S
C537 N546 1.454 . S
O538 C544 1.235 . D
H540 C535 0.990 . S
C543 N547 1.451 . S
C543 H548 0.990 . S
C543 H549 0.990 . S
C544 N547 1.324 . S
C545 N547 1.454 . S
C545 H550 0.990 . S
C545 H551 0.989 . S
H549 C543 0.990 . S
O552 C554 1.235 . D
C553 H557 0.990 . S
C553 H558 0.990 . S
C553 N564 1.451 . S
C554 C563 1.500 . S
C554 N564 1.324 . S
C555 H559 0.990 . S
C555 H560 0.989 . S
C555 C562 1.500 . S
C555 N564 1.454 . S
O556 C562 1.235 . D
H558 C553 0.990 . S
C561 N565 1.451 . S
C561 H566 0.990 . S
C561 H567 0.990 . S
C562 N565 1.324 . S
C563 N565 1.454 . S
C563 H568 0.990 . S
C563 H569 0.989 . S
H567 C561 0.990 . S
O570 C572 1.235 . D
C571 H575 0.990 . S
C571 H576 0.990 . S
C571 N582 1.451 . S
C572 C581 1.500 . S
C572 N582 1.324 . S
C573 H577 0.990 . S
C573 H578 0.989 . S
C573 C580 1.500 . S
C573 N582 1.454 . S
O574 C580 1.235 . D
H576 C571 0.990 . S
C579 N583 1.451 . S
C579 H584 0.990 . S
C579 H585 0.990 . S
C580 N583 1.324 . S
C581 N583 1.454 . S
C581 H586 0.990 . S
C581 H587 0.989 . S
H585 C579 0.990 . S
O588 C590 1.235 . D
C589 H593 0.990 . S
C589 H594 0.990 . S
C589 N600 1.451 . S
C590 C599 1.500 . S
C590 N600 1.324 . S
C591 H595 0.990 . S
C591 H596 0.989 . S
C591 C598 1.500 . S
C591 N600 1.454 . S
O592 C598 1.235 . D
H594 C589 0.990 . S
C597 N601 1.451 . S
C597 H602 0.990 . S
C597 H603 0.990 . S
C598 N601 1.324 . S
C599 N601 1.454 . S
C599 H604 0.990 . S
C599 H605 0.989 . S
H603 C597 0.990 . S
O606 C608 1.235 . D
C607 H611 0.990 . S
C607 H612 0.990 . S
C607 N618 1.451 . S
C608 C617 1.500 . S
C608 N618 1.324 . S
C609 H613 0.990 . S
C609 H614 0.989 . S
C609 C616 1.500 . S
C609 N618 1.454 . S
O610 C616 1.235 . D
H612 C607 0.990 . S
C615 N619 1.451 . S
C615 H620 0.990 . S
C615 H621 0.990 . S
C616 N619 1.324 . S
C617 N619 1.454 . S
C617 H622 0.990 . S
C617 H623 0.989 . S
H621 C615 0.990 . S
O624 C626 1.235 . D
C625 H629 0.990 . S
C625 H630 0.990 . S
C625 N636 1.451 . S
C626 C635 1.500 . S
C626 N636 1.324 . S
C627 H631 0.990 . S
C627 H632 0.989 . S
C627 C634 1.500 . S
C627 N636 1.454 . S
O628 C634 1.235 . D
H630 C625 0.990 . S
C633 N637 1.451 . S
C633 H638 0.990 . S
C633 H639 0.990 . S
C634 N637 1.324 . S
C635 N637 1.454 . S
C635 H640 0.990 . S
C635 H641 0.989 . S
H639 C633 0.990 . S
O642 C644 1.235 . D
C643 H647 0.990 . S
C643 H648 0.990 . S
C643 N654 1.451 . S
C644 C653 1.500 . S
C644 N654 1.324 . S
C645 H649 0.990 . S
C645 H650 0.989 . S
C645 C652 1.500 . S
C645 N654 1.454 . S
O646 C652 1.235 . D
H648 C643 0.990 . S
C651 N655 1.451 . S
C651 H656 0.990 . S
C651 H657 0.990 . S
C652 N655 1.324 . S
C653 N655 1.454 . S
C653 H658 0.990 . S
C653 H659 0.989 . S
H657 C651 0.990 . S
O660 C662 1.235 . D
C661 H665 0.990 . S
C661 H666 0.990 . S
C661 N672 1.451 . S
C662 C671 1.500 . S
C662 N672 1.324 . S
C663 H667 0.990 . S
C663 H668 0.989 . S
C663 C670 1.500 . S
C663 N672 1.454 . S
O664 C670 1.235 . D
H666 C661 0.990 . S
C669 N673 1.451 . S
C669 H674 0.990 . S
C669 H675 0.990 . S
C670 N673 1.324 . S
C671 N673 1.454 . S
C671 H676 0.990 . S
C671 H677 0.989 . S
H675 C669 0.990 . S
O678 C680 1.235 . D
C679 H683 0.990 . S
C679 H684 0.990 . S
C679 N690 1.451 . S
C680 C689 1.500 . S
C680 N690 1.324 . S
C681 H685 0.990 . S
C681 H686 0.989 . S
C681 C688 1.500 . S
C681 N690 1.454 . S
O682 C688 1.235 . D
H684 C679 0.990 . S
C687 N691 1.451 . S
C687 H692 0.990 . S
C687 H693 0.990 . S
C688 N691 1.324 . S
C689 N691 1.454 . S
C689 H694 0.990 . S
C689 H695 0.989 . S
H693 C687 0.990 . S
O696 C698 1.235 . D
C697 H701 0.990 . S
C697 H702 0.990 . S
C697 N708 1.451 . S
C698 C707 1.500 . S
C698 N708 1.324 . S
C699 H703 0.990 . S
C699 H704 0.989 . S
C699 C706 1.500 . S
C699 N708 1.454 . S
O700 C706 1.235 . D
H702 C697 0.990 . S
C705 N709 1.451 . S
C705 H710 0.990 . S
C705 H711 0.990 . S
C706 N709 1.324 . S
C707 N709 1.454 . S
C707 H712 0.990 . S
C707 H713 0.989 . S
H711 C705 0.990 . S
O714 C716 1.235 . D
C715 H719 0.990 . S
C715 H720 0.990 . S
C715 N726 1.451 . S
C716 C725 1.500 . S
C716 N726 1.324 . S
C717 H721 0.990 . S
C717 H722 0.989 . S
C717 C724 1.500 . S
C717 N726 1.454 . S
O718 C724 1.235 . D
H720 C715 0.990 . S
C723 N727 1.451 . S
C723 H728 0.990 . S
C723 H729 0.990 . S
C724 N727 1.324 . S
C725 N727 1.454 . S
C725 H730 0.990 . S
C725 H731 0.989 . S
H729 C723 0.990 . S
O732 C734 1.235 . D
C733 H737 0.990 . S
C733 H738 0.990 . S
C733 N744 1.451 . S
C734 C743 1.500 . S
C734 N744 1.324 . S
C735 H739 0.990 . S
C735 H740 0.989 . S
C735 C742 1.500 . S
C735 N744 1.454 . S
O736 C742 1.235 . D
H738 C733 0.990 . S
C741 N745 1.451 . S
C741 H746 0.990 . S
C741 H747 0.990 . S
C742 N745 1.324 . S
C743 N745 1.454 . S
C743 H748 0.990 . S
C743 H749 0.989 . S
H747 C741 0.990 . S
O750 C752 1.235 . D
C751 H755 0.990 . S
C751 H756 0.990 . S
C751 N762 1.451 . S
C752 C761 1.500 . S
C752 N762 1.324 . S
C753 H757 0.990 . S
C753 H758 0.989 . S
C753 C760 1.500 . S
C753 N762 1.454 . S
O754 C760 1.235 . D
H756 C751 0.990 . S
C759 N763 1.451 . S
C759 H764 0.990 . S
C759 H765 0.990 . S
C760 N763 1.324 . S
C761 N763 1.454 . S
C761 H766 0.990 . S
C761 H767 0.989 . S
H765 C759 0.990 . S
O768 C770 1.235 . D
C769 H773 0.990 . S
C769 H774 0.990 . S
C769 N780 1.451 . S
C770 C779 1.500 . S
C770 N780 1.324 . S
C771 H775 0.990 . S
C771 H776 0.989 . S
C771 C778 1.500 . S
C771 N780 1.454 . S
O772 C778 1.235 . D
H774 C769 0.990 . S
C777 N781 1.451 . S
C777 H782 0.990 . S
C777 H783 0.990 . S
C778 N781 1.324 . S
C779 N781 1.454 . S
C779 H784 0.990 . S
C779 H785 0.989 . S
H783 C777 0.990 . S
O786 C788 1.235 . D
C787 H791 0.990 . S
C787 H792 0.990 . S
C787 N798 1.451 . S
C788 C797 1.500 . S
C788 N798 1.324 . S
C789 H793 0.990 . S
C789 H794 0.989 . S
C789 C796 1.500 . S
C789 N798 1.454 . S
O790 C796 1.235 . D
H792 C787 0.990 . S
C795 N799 1.451 . S
C795 H800 0.990 . S
C795 H801 0.990 . S
C796 N799 1.324 . S
C797 N799 1.454 . S
C797 H802 0.990 . S
C797 H803 0.989 . S
H801 C795 0.990 . S
O804 C806 1.235 . D
C805 H809 0.990 . S
C805 H810 0.990 . S
C805 N816 1.451 . S
C806 C815 1.500 . S
C806 N816 1.324 . S
C807 H811 0.990 . S
C807 H812 0.989 . S
C807 C814 1.500 . S
C807 N816 1.454 . S
O808 C814 1.235 . D
H810 C805 0.990 . S
C813 N817 1.451 . S
C813 H818 0.990 . S
C813 H819 0.990 . S
C814 N817 1.324 . S
C815 N817 1.454 . S
C815 H820 0.990 . S
C815 H821 0.989 . S
H819 C813 0.990 . S
O822 C824 1.235 . D
C823 H827 0.990 . S
C823 H828 0.990 . S
C823 N834 1.451 . S
C824 C833 1.500 . S
C824 N834 1.324 . S
C825 H829 0.990 . S
C825 H830 0.989 . S
C825 C832 1.500 . S
C825 N834 1.454 . S
O826 C832 1.235 . D
H828 C823 0.990 . S
C831 N835 1.451 . S
C831 H836 0.990 . S
C831 H837 0.990 . S
C832 N835 1.324 . S
C833 N835 1.454 . S
C833 H838 0.990 . S
C833 H839 0.989 . S
H837 C831 0.990 . S
O840 C842 1.235 . D
C841 H845 0.990 . S
C841 H846 0.990 . S
C841 N852 1.451 . S
C842 C851 1.500 1_455 S
C842 N852 1.324 . S
C843 H847 0.990 . S
C843 H848 0.989 . S
C843 C850 1.500 1_455 S
C843 N852 1.454 . S
O844 C850 1.235 . D
H846 C841 0.990 . S
C849 N853 1.451 . S
C849 H854 0.990 . S
C849 H855 0.990 . S
C850 N853 1.324 . S
C851 N853 1.454 . S
C851 H856 0.990 . S
C851 H857 0.989 . S
H855 C849 0.990 . S
O858 C860 1.235 . D
C859 H863 0.990 . S
C859 H864 0.990 . S
C859 N870 1.451 . S
C860 C869 1.500 1_565 S
C860 N870 1.324 . S
C861 H865 0.990 . S
C861 H866 0.989 . S
C861 C868 1.500 1_565 S
C861 N870 1.454 . S
O862 C868 1.235 . D
H864 C859 0.990 . S
C867 N871 1.451 . S
C867 H872 0.990 . S
C867 H873 0.990 . S
C868 N871 1.324 . S
C869 N871 1.454 . S
C869 H874 0.990 . S
C869 H875 0.989 . S
H873 C867 0.990 . S
O876 C878 1.235 . D
C877 H881 0.990 . S
C877 H882 0.990 . S
C877 N888 1.451 . S
C878 C887 1.500 1_455 S
C878 N888 1.324 . S
C879 H883 0.990 . S
C879 H884 0.989 . S
C879 C886 1.500 1_455 S
C879 N888 1.454 . S
O880 C886 1.235 . D
H882 C877 0.990 . S
C885 N889 1.451 . S
C885 H890 0.990 . S
C885 H891 0.990 . S
C886 N889 1.324 . S
C887 N889 1.454 . S
C887 H892 0.990 . S
C887 H893 0.989 . S
H891 C885 0.990 . S
O894 C896 1.235 . D
C895 H899 0.990 . S
C895 H900 0.990 . S
C895 N906 1.451 . S
C896 C905 1.502 . S
C896 N906 1.321 1_556 S
C897 H901 0.990 . S
C897 H902 0.989 . S
C897 C904 1.502 . S
C897 N906 1.454 . S
O898 C904 1.235 . D
H900 C895 0.990 . S
C903 N907 1.451 . S
C903 H908 0.990 . S
C903 H909 0.990 . S
C904 N907 1.321 1_554 S
C905 N907 1.454 . S
C905 H910 0.990 . S
C905 H911 0.989 . S
H909 C903 0.990 . S
O912 C914 1.235 . D
C913 H917 0.990 . S
C913 H918 0.990 . S
C913 N924 1.451 . S
C914 C923 1.500 1_545 S
C914 N924 1.324 . S
C915 H919 0.990 . S
C915 H920 0.989 . S
C915 C922 1.500 1_545 S
C915 N924 1.454 . S
O916 C922 1.235 . D
H918 C913 0.990 . S
C921 N925 1.451 . S
C921 H926 0.990 . S
C921 H927 0.990 . S
C922 N925 1.324 . S
C923 N925 1.454 . S
C923 H928 0.990 . S
C923 H929 0.989 . S
H927 C921 0.990 . S
O930 C932 1.235 . D
C931 H935 0.990 . S
C931 H936 0.990 . S
C931 N942 1.451 . S
C932 C941 1.500 1_565 S
C932 N942 1.324 . S
C933 H937 0.990 . S
C933 H938 0.989 . S
C933 C940 1.500 1_565 S
C933 N942 1.454 . S
O934 C940 1.235 . D
H936 C931 0.990 . S
C939 N943 1.451 . S
C939 H944 0.990 . S
C939 H945 0.990 . S
C940 N943 1.324 . S
C941 N943 1.454 . S
C941 H946 0.990 . S
C941 H947 0.989 . S
H945 C939 0.990 . S
O948 C950 1.235 . D
C949 H953 0.990 . S
C949 H954 0.990 . S
C949 N960 1.451 . S
C950 C959 1.500 1_655 S
C950 N960 1.324 . S
C951 H955 0.990 . S
C951 H956 0.989 . S
C951 C958 1.500 1_655 S
C951 N960 1.454 . S
O952 C958 1.235 . D
H954 C949 0.990 . S
C957 N961 1.451 . S
C957 H962 0.990 . S
C957 H963 0.990 . S
C958 N961 1.324 . S
C959 N961 1.454 . S
C959 H964 0.990 . S
C959 H965 0.989 . S
H963 C957 0.990 . S
O966 C968 1.235 . D
C967 H971 0.990 . S
C967 H972 0.990 . S
C967 N978 1.451 . S
C968 C977 1.500 1_545 S
C968 N978 1.324 . S
C969 H973 0.990 . S
C969 H974 0.989 . S
C969 C976 1.500 1_545 S
C969 N978 1.454 . S
O970 C976 1.235 . D
H972 C967 0.990 . S
C975 N979 1.451 . S
C975 H980 0.990 . S
C975 H981 0.990 . S
C976 N979 1.324 . S
C977 N979 1.454 . S
C977 H982 0.990 . S
C977 H983 0.989 . S
H981 C975 0.990 . S
O984 C986 1.235 . D
C985 H989 0.990 . S
C985 H990 0.990 . S
C985 N996 1.451 . S
C986 C995 1.500 1_655 S
C986 N996 1.324 . S
C987 H991 0.990 . S
C987 H992 0.989 . S
C987 C994 1.500 1_655 S
C987 N996 1.454 . S
O988 C994 1.235 . D
H990 C985 0.990 . S
C993 N997 1.451 . S
C993 H998 0.990 . S
C993 H999 0.990 . S
C994 N997 1.324 . S
C995 N997 1.454 . S
C995 H1000 0.990 . S
C995 H1001 0.989 . S
H999 C993 0.990 . S
O1002 C1004 1.235 . D
C1003 H1007 0.990 . S
C1003 H1008 0.990 . S
C1003 N1014 1.451 . S
C1004 C1013 1.502 . S
C1004 N1014 1.322 1_556 S
C1005 H1009 0.990 . S
C1005 H1010 0.989 . S
C1005 C1012 1.502 . S
C1005 N1014 1.454 . S
O1006 C1012 1.235 . D
H1008 C1003 0.990 . S
C1011 N1015 1.451 . S
C1011 H1016 0.990 . S
C1011 H1017 0.990 . S
C1012 N1015 1.322 1_554 S
C1013 N1015 1.454 . S
C1013 H1018 0.990 . S
C1013 H1019 0.989 . S
H1017 C1011 0.990 . S
O1020 C1022 1.235 . D
C1021 H1025 0.990 . S
C1021 H1026 0.990 . S
C1021 N1032 1.451 . S
C1022 C1031 1.500 1_554 S
C1022 N1032 1.324 . S
C1023 H1027 0.990 . S
C1023 H1028 0.989 . S
C1023 C1030 1.500 1_554 S
C1023 N1032 1.454 . S
O1024 C1030 1.235 . D
H1026 C1021 0.990 . S
C1029 N1033 1.451 . S
C1029 H1034 0.990 . S
C1029 H1035 0.990 . S
C1030 N1033 1.324 . S
C1031 N1033 1.454 . S
C1031 H1036 0.990 . S
C1031 H1037 0.989 . S
H1035 C1029 0.990 . S
O1038 C1040 1.235 . D
C1039 H1043 0.990 . S
C1039 H1044 0.990 . S
C1039 N1050 1.451 . S
C1040 C1049 1.500 1_554 S
C1040 N1050 1.324 . S
C1041 H1045 0.990 . S
C1041 H1046 0.989 . S
C1041 C1048 1.500 1_554 S
C1041 N1050 1.454 . S
O1042 C1048 1.235 . D
H1044 C1039 0.990 . S
C1047 N1051 1.451 . S
C1047 H1052 0.990 . S
C1047 H1053 0.990 . S
C1048 N1051 1.324 . S
C1049 N1051 1.454 . S
C1049 H1054 0.990 . S
C1049 H1055 0.989 . S
H1053 C1047 0.990 . S
O1056 C1058 1.235 . D
C1057 H1061 0.990 . S
C1057 H1062 0.990 . S
C1057 N1068 1.451 . S
C1058 C1067 1.500 . S
C1058 N1068 1.324 . S
C1059 H1063 0.990 . S
C1059 H1064 0.989 . S
C1059 C1066 1.500 . S
C1059 N1068 1.454 . S
O1060 C1066 1.235 . D
H1062 C1057 0.990 . S
C1065 N1069 1.451 . S
C1065 H1070 0.990 . S
C1065 H1071 0.990 . S
C1066 N1069 1.324 . S
C1067 N1069 1.454 . S
C1067 H1072 0.990 . S
C1067 H1073 0.989 . S
H1071 C1065 0.990 . S
O1074 C1076 1.235 . D
C1075 H1079 0.990 . S
C1075 H1080 0.990 . S
C1075 N1086 1.451 . S
C1076 C1085 1.500 . S
C1076 N1086 1.324 . S
C1077 H1081 0.990 . S
C1077 H1082 0.989 . S
C1077 C1084 1.500 . S
C1077 N1086 1.454 . S
O1078 C1084 1.235 . D
H1080 C1075 0.990 . S
C1083 N1087 1.451 . S
C1083 H1088 0.990 . S
C1083 H1089 0.990 . S
C1084 N1087 1.324 . S
C1085 N1087 1.454 . S
C1085 H1090 0.990 . S
C1085 H1091 0.989 . S
H1089 C1083 0.990 . S
O1092 C1094 1.235 . D
C1093 H1097 0.990 . S
C1093 H1098 0.990 . S
C1093 N1104 1.451 . S
C1094 C1103 1.500 . S
C1094 N1104 1.324 . S
C1095 H1099 0.990 . S
C1095 H1100 0.989 . S
C1095 C1102 1.500 . S
C1095 N1104 1.454 . S
O1096 C1102 1.235 . D
H1098 C1093 0.990 . S
C1101 N1105 1.451 . S
C1101 H1106 0.990 . S
C1101 H1107 0.990 . S
C1102 N1105 1.324 . S
C1103 N1105 1.454 . S
C1103 H1108 0.990 . S
C1103 H1109 0.989 . S
H1107 C1101 0.990 . S
O1110 C1112 1.235 . D
C1111 H1115 0.990 . S
C1111 H1116 0.990 . S
C1111 N1122 1.451 . S
C1112 C1121 1.500 . S
C1112 N1122 1.324 . S
C1113 H1117 0.990 . S
C1113 H1118 0.989 . S
C1113 C1120 1.500 . S
C1113 N1122 1.454 . S
O1114 C1120 1.235 . D
H1116 C1111 0.990 . S
C1119 N1123 1.451 . S
C1119 H1124 0.990 . S
C1119 H1125 0.990 . S
C1120 N1123 1.324 . S
C1121 N1123 1.454 . S
C1121 H1126 0.990 . S
C1121 H1127 0.989 . S
H1125 C1119 0.990 . S
O1128 C1130 1.235 . D
C1129 H1133 0.990 . S
C1129 H1134 0.990 . S
C1129 N1140 1.451 . S
C1130 C1139 1.500 . S
C1130 N1140 1.324 . S
C1131 H1135 0.990 . S
C1131 H1136 0.989 . S
C1131 C1138 1.500 . S
C1131 N1140 1.454 . S
O1132 C1138 1.235 . D
H1134 C1129 0.990 . S
C1137 N1141 1.451 . S
C1137 H1142 0.990 . S
C1137 H1143 0.990 . S
C1138 N1141 1.324 . S
C1139 N1141 1.454 . S
C1139 H1144 0.990 . S
C1139 H1145 0.989 . S
H1143 C1137 0.990 . S
O1146 C1148 1.235 . D
C1147 H1151 0.990 . S
C1147 H1152 0.990 . S
C1147 N1158 1.451 . S
C1148 C1157 1.500 . S
C1148 N1158 1.324 . S
C1149 H1153 0.990 . S
C1149 H1154 0.989 . S
C1149 C1156 1.500 . S
C1149 N1158 1.454 . S
O1150 C1156 1.235 . D
H1152 C1147 0.990 . S
C1155 N1159 1.451 . S
C1155 H1160 0.990 . S
C1155 H1161 0.990 . S
C1156 N1159 1.324 . S
C1157 N1159 1.454 . S
C1157 H1162 0.990 . S
C1157 H1163 0.989 . S
H1161 C1155 0.990 . S
O1164 C1166 1.235 . D
C1165 H1169 0.990 . S
C1165 H1170 0.990 . S
C1165 N1176 1.451 . S
C1166 C1175 1.500 . S
C1166 N1176 1.324 . S
C1167 H1171 0.990 . S
C1167 H1172 0.989 . S
C1167 C1174 1.500 . S
C1167 N1176 1.454 . S
O1168 C1174 1.235 . D
H1170 C1165 0.990 . S
C1173 N1177 1.451 . S
C1173 H1178 0.990 . S
C1173 H1179 0.990 . S
C1174 N1177 1.324 . S
C1175 N1177 1.454 . S
C1175 H1180 0.990 . S
C1175 H1181 0.989 . S
H1179 C1173 0.990 . S
O1182 C1184 1.235 . D
C1183 H1187 0.990 . S
C1183 H1188 0.990 . S
C1183 N1194 1.451 . S
C1184 C1193 1.500 . S
C1184 N1194 1.324 . S
C1185 H1189 0.990 . S
C1185 H1190 0.989 . S
C1185 C1192 1.500 . S
C1185 N1194 1.454 . S
O1186 C1192 1.235 . D
H1188 C1183 0.990 . S
C1191 N1195 1.451 . S
C1191 H1196 0.990 . S
C1191 H1197 0.990 . S
C1192 N1195 1.324 . S
C1193 N1195 1.454 . S
C1193 H1198 0.990 . S
C1193 H1199 0.989 . S
H1197 C1191 0.990 . S
O1200 C1202 1.235 . D
C1201 H1205 0.990 . S
C1201 H1206 0.990 . S
C1201 N1212 1.451 . S
C1202 C1211 1.500 . S
C1202 N1212 1.324 . S
C1203 H1207 0.990 . S
C1203 H1208 0.989 . S
C1203 C1210 1.500 . S
C1203 N1212 1.454 . S
O1204 C1210 1.235 . D
H1206 C1201 0.990 . S
C1209 N1213 1.451 . S
C1209 H1214 0.990 . S
C1209 H1215 0.990 . S
C1210 N1213 1.324 . S
C1211 N1213 1.454 . S
C1211 H1216 0.990 . S
C1211 H1217 0.989 . S
H1215 C1209 0.990 . S
O1218 C1220 1.235 . D
C1219 H1223 0.990 . S
C1219 H1224 0.990 . S
C1219 N1230 1.451 . S
C1220 C1229 1.500 . S
C1220 N1230 1.324 . S
C1221 H1225 0.990 . S
C1221 H1226 0.989 . S
C1221 C1228 1.500 . S
C1221 N1230 1.454 . S
O1222 C1228 1.235 . D
H1224 C1219 0.990 . S
C1227 N1231 1.451 . S
C1227 H1232 0.990 . S
C1227 H1233 0.990 . S
C1228 N1231 1.324 . S
C1229 N1231 1.454 . S
C1229 H1234 0.990 . S
C1229 H1235 0.989 . S
H1233 C1227 0.990 . S
O1236 C1238 1.235 . D
C1237 H1241 0.990 . S
C1237 H1242 0.990 . S
C1237 N1248 1.451 . S
C1238 C1247 1.500 . S
C1238 N1248 1.324 . S
C1239 H1243 0.990 . S
C1239 H1244 0.989 . S
C1239 C1246 1.500 . S
C1239 N1248 1.454 . S
O1240 C1246 1.235 . D
H1242 C1237 0.990 . S
C1245 N1249 1.451 . S
C1245 H1250 0.990 . S
C1245 H1251 0.990 . S
C1246 N1249 1.324 . S
C1247 N1249 1.454 . S
C1247 H1252 0.990 . S
C1247 H1253 0.989 . S
H1251 C1245 0.990 . S
O1254 C1256 1.235 . D
C1255 H1259 0.990 . S
C1255 H1260 0.990 . S
C1255 N1266 1.451 . S
C1256 C1265 1.500 . S
C1256 N1266 1.324 . S
C1257 H1261 0.990 . S
C1257 H1262 0.989 . S
C1257 C1264 1.500 . S
C1257 N1266 1.454 . S
O1258 C1264 1.235 . D
H1260 C1255 0.990 . S
C1263 N1267 1.451 . S
C1263 H1268 0.990 . S
C1263 H1269 0.990 . S
C1264 N1267 1.324 . S
C1265 N1267 1.454 . S
C1265 H1270 0.990 . S
C1265 H1271 0.989 . S
H1269 C1263 0.990 . S
C409 C247 1.393 . S
C417 C2 1.398 . S
C427 C19 1.415 . S
C435 C179 1.414 . S
C445 C196 1.034 . S
C453 C36 1.028 . S
C463 C145 1.212 . S
C471 C53 1.204 . S
C481 C213 1.175 . S
C489 C70 1.178 . S
C499 C256 0.849 . S
C507 C87 0.504 . S
C517 C307 0.792 . S
C525 C104 1.110 . S
C535 C359 0.895 . S
C543 C60 0.887 . S
C553 C155 1.040 . S
C561 C77 1.017 . S
C571 C128 1.098 . S
C579 C138 1.078 . S
C589 C376 1.128 . S
C597 C162 1.137 . S
C607 C230 1.305 . S
C615 C393 1.300 . S
C625 C223 1.003 . S
C633 C26 0.980 . S
C643 C366 1.203 . S
C651 C121 1.195 . S
C661 C257 1.076 . S
C669 C324 0.824 . S
C679 C103 0.872 . S
C687 C274 0.569 . S
C697 C273 0.875 . S
C705 C291 0.765 . S
C715 C290 0.791 . S
C723 C308 0.761 . S
C733 C325 1.106 . S
C741 C341 0.804 . S
C751 C342 0.505 . S
C759 C86 0.848 . S
C769 C240 0.999 . S
C777 C43 1.019 . S
C787 C206 0.895 . S
C795 C383 0.898 . S
C805 C172 1.159 . S
C813 C400 1.174 . S
C823 C9 0.891 . S
C831 C189 0.902 . S
C841 C375 1.163 . S
C849 C1 1.176 . S
C859 C52 1.201 . S
C867 C18 1.201 . S
C877 C69 1.207 . S
C885 C35 1.149 . S
C895 C111 1.287 . S
C903 C94 1.038 . S
C913 C392 1.199 . S
C921 C120 1.203 . S
C931 C137 1.399 . S
C939 C222 1.339 . S
C949 C188 1.465 . S
C957 C154 1.437 . S
C967 C171 1.381 . S
C975 C358 1.456 . S
C985 C239 1.341 . S
C993 C205 1.370 . S
C1003 C281 1.285 . S
C1011 C264 1.034 . S
C1021 C298 1.161 . S
C1029 C332 0.996 . S
C1039 C315 1.295 . S
C1047 C349 1.177 . S
C1057 C95 0.762 . S
C1065 C10 0.865 . S
C1075 C27 0.987 . S
C1083 C316 0.953 . S
C1093 C112 0.781 . S
C1101 C44 0.932 . S
C1111 C61 0.855 . S
C1119 C282 0.766 . S
C1129 C78 0.955 . S
C1137 C299 0.809 . S
C1147 C129 0.982 . S
C1155 C265 0.874 . S
C1165 C163 1.611 . S
C1173 C146 1.564 . S
C1183 C248 1.544 . S
C1191 C180 1.596 . S
C1201 C367 1.539 . S
C1209 C197 1.591 . S
C1219 C214 1.625 . S
C1227 C231 1.631 . S
C1237 C384 0.812 . S
C1245 C333 0.815 . S
C1255 C401 0.976 . S
C1263 C350 0.985 . S
