# Generated by pormake.
# Topology bor, (3,4)-cn, num edge types: 1
# Building blocks:
#     Node 0, Type 0, BuildingBlock: N136, # of connection points: 4
#     Node 1, Type 0, BuildingBlock: N136, # of connection points: 4
#     Node 2, Type 0, BuildingBlock: N136, # of connection points: 4
#     Node 3, Type 0, BuildingBlock: N136, # of connection points: 4
#     Node 4, Type 1, BuildingBlock: N203, # of connection points: 12
#     Node 5, Type 1, BuildingBlock: N203, # of connection points: 12
#     Node 6, Type 1, BuildingBlock: N203, # of connection points: 12
#     Edge 7, Type (0, 1), BuildingBlock: E56, # of connection points: 2
#     Edge 8, Type (0, 1), BuildingBlock: E56, # of connection points: 2
#     Edge 9, Type (0, 1), BuildingBlock: E56, # of connection points: 2
#     Edge 10, Type (0, 1), BuildingBlock: E56, # of connection points: 2
#     Edge 11, Type (0, 1), BuildingBlock: E56, # of connection points: 2
#     Edge 12, Type (0, 1), BuildingBlock: E56, # of connection points: 2
#     Edge 13, Type (0, 1), BuildingBlock: E56, # of connection points: 2
#     Edge 14, Type (0, 1), BuildingBlock: E56, # of connection points: 2
#     Edge 15, Type (0, 1), BuildingBlock: E56, # of connection points: 2
#     Edge 16, Type (0, 1), BuildingBlock: E56, # of connection points: 2
#     Edge 17, Type (0, 1), BuildingBlock: E56, # of connection points: 2
#     Edge 18, Type (0, 1), BuildingBlock: E56, # of connection points: 2
# Relax obj value: 0.078
# Max RMSD: 0.818
# Mean RMSD: 0.384
data_bor+N136+N203+E56
_symmetry_space_group_name_H-M    P1
_symmetry_Int_Tables_number       1
_symmetry_cell_setting            triclinic
loop_
_symmetry_equiv_pos_as_xyz
'x, y, z'
_cell_length_a     54.181
_cell_length_b     19.437
_cell_length_c     60.052
_cell_angle_alpha  115.054
_cell_angle_beta   91.250
_cell_angle_gamma  97.866
loop_
_atom_site_label
_atom_site_type_symbol
_atom_site_fract_x
_atom_site_fract_y
_atom_site_fract_z
_atom_type_partial_charge
N0 N 0.23134 0.24185 0.26298 0.00000
Cd1 Cd 0.26345 0.24020 0.29039 0.00000
N2 N 0.29717 0.28055 0.32078 0.00000
H3 H 0.24682 0.30950 0.34815 0.00000
H4 H 0.21975 0.10957 0.28871 0.00000
H5 H 0.21304 0.28257 0.37051 0.00000
H6 H 0.18777 0.08046 0.30994 0.00000
H7 H 0.28055 0.29056 0.24753 0.00000
H8 H 0.31156 0.16848 0.27240 0.00000
H9 H 0.30736 0.25964 0.21518 0.00000
H10 H 0.33729 0.13307 0.24063 0.00000
H11 H 0.24030 0.15217 0.23130 0.00000
H12 H 0.21846 0.32908 0.28911 0.00000
H13 H 0.20339 0.14583 0.20658 0.00000
H14 H 0.18347 0.32666 0.26564 0.00000
H15 H 0.28661 0.20880 0.33460 0.00000
H16 H 0.31293 0.35786 0.31165 0.00000
H17 H 0.31713 0.26671 0.36886 0.00000
H18 H 0.34225 0.41919 0.34526 0.00000
C19 C 0.23282 0.25782 0.33896 0.00000
C20 C 0.21848 0.14505 0.30604 0.00000
C21 C 0.21431 0.24480 0.35282 0.00000
C22 C 0.19932 0.12789 0.31863 0.00000
C23 C 0.19670 0.17944 0.34250 0.00000
C24 C 0.29302 0.25864 0.24561 0.00000
C25 C 0.31107 0.18520 0.26014 0.00000
C26 C 0.30847 0.24214 0.22669 0.00000
C27 C 0.32690 0.16593 0.24174 0.00000
C28 C 0.32540 0.19293 0.22395 0.00000
C29 C 0.22687 0.19094 0.23958 0.00000
C30 C 0.21540 0.29156 0.27163 0.00000
C31 C 0.20646 0.18565 0.22441 0.00000
C32 C 0.19446 0.28985 0.25770 0.00000
C33 C 0.18941 0.23468 0.23357 0.00000
C34 C 0.29892 0.25238 0.33735 0.00000
C35 C 0.31420 0.34151 0.32394 0.00000
C36 C 0.31656 0.28446 0.35737 0.00000
C37 C 0.33213 0.37667 0.34346 0.00000
C38 C 0.33322 0.34948 0.36124 0.00000
N39 N 0.23491 0.21000 0.31577 0.00000
N40 N 0.29373 0.22998 0.26214 0.00000
N41 N 0.61952 0.11680 0.65632 0.00000
Cd42 Cd 0.64188 0.08890 0.62060 0.00000
N43 N 0.67254 0.09611 0.59420 0.00000
H44 H 0.69196 0.01101 0.62515 0.00000
H45 H 0.61814 0.92258 0.61538 0.00000
H46 H 0.70124 0.90110 0.63103 0.00000
H47 H 0.62645 0.81495 0.61990 0.00000
H48 H 0.61969 0.24848 0.64252 0.00000
H49 H 0.62292 0.11044 0.57486 0.00000
H50 H 0.59432 0.31792 0.62988 0.00000
H51 H 0.59723 0.17323 0.56145 0.00000
H52 H 0.58465 0.11021 0.63940 0.00000
H53 H 0.64967 0.12910 0.67788 0.00000
H54 H 0.56265 0.11961 0.67501 0.00000
H55 H 0.62931 0.14150 0.71267 0.00000
H56 H 0.67132 0.98656 0.57506 0.00000
H57 H 0.67840 0.20612 0.60908 0.00000
H58 H 0.70700 0.99865 0.55406 0.00000
H59 H 0.71400 0.22162 0.59018 0.00000
C60 C 0.67670 0.96732 0.62471 0.00000
C61 C 0.63559 0.91705 0.61826 0.00000
C62 C 0.68320 0.90521 0.62767 0.00000
C63 C 0.64052 0.85313 0.62110 0.00000
C64 C 0.66487 0.84717 0.62644 0.00000
C65 C 0.61485 0.23538 0.62564 0.00000
C66 C 0.61643 0.15265 0.58557 0.00000
C67 C 0.60022 0.27727 0.61886 0.00000
C68 C 0.60181 0.19117 0.57749 0.00000
C69 C 0.59271 0.25420 0.59436 0.00000
C70 C 0.59497 0.11491 0.65594 0.00000
C71 C 0.63144 0.12847 0.67754 0.00000
C72 C 0.58147 0.12168 0.67582 0.00000
C73 C 0.61930 0.13537 0.69823 0.00000
C74 C 0.59357 0.13041 0.69740 0.00000
C75 C 0.68062 0.03491 0.57739 0.00000
C76 C 0.68504 0.16502 0.59791 0.00000
C77 C 0.70120 0.04007 0.56475 0.00000
C78 C 0.70572 0.17452 0.58617 0.00000
C79 C 0.71476 0.11090 0.56954 0.00000
N80 N 0.65334 0.97475 0.62048 0.00000
N81 N 0.62274 0.17270 0.60945 0.00000
N82 N 0.72399 0.87915 0.41561 0.00000
Cd83 Cd 0.75049 0.92622 0.45287 0.00000
N84 N 0.78228 0.93805 0.48217 0.00000
H85 H 0.80654 0.00893 0.44664 0.00000
H86 H 0.73905 0.07953 0.45024 0.00000
H87 H 0.82370 0.11186 0.43605 0.00000
H88 H 0.75514 0.18069 0.44114 0.00000
H89 H 0.71518 0.76140 0.43585 0.00000
H90 H 0.73215 0.92172 0.50123 0.00000
H91 H 0.68512 0.69583 0.45119 0.00000
H92 H 0.70229 0.86268 0.51708 0.00000
H93 H 0.69017 0.88481 0.43179 0.00000
H94 H 0.75240 0.86500 0.39461 0.00000
H95 H 0.66541 0.85529 0.39385 0.00000
H96 H 0.72912 0.83339 0.35774 0.00000
H97 H 0.79012 0.04923 0.49752 0.00000
H98 H 0.77931 0.82937 0.47150 0.00000
H99 H 0.82634 0.05525 0.52154 0.00000
H100 H 0.81509 0.83124 0.49345 0.00000
C101 C 0.79439 0.04674 0.44462 0.00000
C102 C 0.75693 0.08745 0.44765 0.00000
C103 C 0.80537 0.10535 0.43907 0.00000
C104 C 0.76646 0.14746 0.44207 0.00000
C105 C 0.79120 0.15628 0.43714 0.00000
C106 C 0.71214 0.78003 0.45287 0.00000
C107 C 0.72192 0.87582 0.49153 0.00000
C108 C 0.69464 0.74026 0.46126 0.00000
C109 C 0.70475 0.83980 0.50114 0.00000
C110 C 0.69003 0.77101 0.48575 0.00000
C111 C 0.69937 0.87549 0.41497 0.00000
C112 C 0.73406 0.86158 0.39423 0.00000
C113 C 0.68421 0.85729 0.39382 0.00000
C114 C 0.72022 0.84321 0.37228 0.00000
C115 C 0.69466 0.84236 0.37195 0.00000
C116 C 0.79582 0.00485 0.49752 0.00000
C117 C 0.78962 0.87446 0.48174 0.00000
C118 C 0.81688 0.01026 0.51185 0.00000
C119 C 0.81042 0.87541 0.49531 0.00000
C120 C 0.82509 0.94463 0.51041 0.00000
N121 N 0.77047 0.03626 0.44849 0.00000
N122 N 0.72557 0.84791 0.46750 0.00000
N123 N 0.31953 0.81500 0.85843 0.00000
Cd124 Cd 0.35379 0.83665 0.83675 0.00000
N125 N 0.38568 0.81520 0.80977 0.00000
H126 H 0.33416 0.79523 0.77867 0.00000
H127 H 0.32281 0.97109 0.84292 0.00000
H128 H 0.30447 0.83396 0.75726 0.00000
H129 H 0.29508 0.01167 0.82284 0.00000
H130 H 0.36301 0.75872 0.87358 0.00000
H131 H 0.40795 0.90788 0.86201 0.00000
H132 H 0.39076 0.77530 0.90716 0.00000
H133 H 0.43512 0.92951 0.89527 0.00000
H134 H 0.33527 0.89312 0.89367 0.00000
H135 H 0.29972 0.73577 0.82800 0.00000
H136 H 0.29718 0.88115 0.91303 0.00000
H137 H 0.26325 0.72055 0.84614 0.00000
H138 H 0.38316 0.89933 0.80109 0.00000
H139 H 0.39318 0.72847 0.81432 0.00000
H140 H 0.41037 0.86104 0.76917 0.00000
H141 H 0.41880 0.68599 0.78266 0.00000
C142 C 0.32462 0.84365 0.78909 0.00000
C143 C 0.31919 0.94332 0.82486 0.00000
C144 C 0.30829 0.86398 0.77579 0.00000
C145 C 0.30254 0.96725 0.81293 0.00000
C146 C 0.29641 0.92601 0.78780 0.00000
C147 C 0.37856 0.79312 0.87853 0.00000
C148 C 0.40496 0.88253 0.87191 0.00000
C149 C 0.39441 0.80110 0.89805 0.00000
C150 C 0.42150 0.89383 0.89117 0.00000
C151 C 0.41609 0.85403 0.90528 0.00000
C152 C 0.31851 0.85508 0.88246 0.00000
C153 C 0.29919 0.76518 0.84594 0.00000
C154 C 0.29752 0.84948 0.89462 0.00000
C155 C 0.27739 0.75643 0.85671 0.00000
C156 C 0.27616 0.80057 0.88161 0.00000
C157 C 0.39137 0.85554 0.79686 0.00000
C158 C 0.39692 0.75352 0.80445 0.00000
C159 C 0.40725 0.83504 0.77830 0.00000
C160 C 0.41275 0.72944 0.78617 0.00000
C161 C 0.41777 0.76940 0.77204 0.00000
N162 N 0.32988 0.88125 0.81331 0.00000
N163 N 0.38325 0.83386 0.86559 0.00000
O164 O 0.50210 0.95879 0.55076 0.00000
C165 C 0.51680 0.00427 0.64149 0.00000
Dy166 Dy 0.52585 0.15029 0.54895 0.00000
Dy167 Dy 0.52199 0.13084 0.48029 0.00000
Dy168 Dy 0.52677 0.01633 0.58794 0.00000
C169 C 0.48606 0.19455 0.51328 0.00000
O170 O 0.55479 0.13160 0.60468 0.00000
Dy171 Dy 0.48127 0.87425 0.60650 0.00000
C172 C 0.49304 0.16152 0.59168 0.00000
C173 C 0.44377 0.76405 0.57393 0.00000
C174 C 0.44170 0.98587 0.63537 0.00000
C175 C 0.49243 0.97243 0.53405 0.00000
C176 C 0.56033 0.19463 0.60297 0.00000
C177 C 0.55942 0.23956 0.51935 0.00000
C178 C 0.52249 0.82786 0.57888 0.00000
C179 C 0.56351 0.01797 0.54920 0.00000
C180 C 0.49026 0.01446 0.44257 0.00000
C181 C 0.57048 0.04839 0.46046 0.00000
O182 O 0.54975 0.06435 0.54772 0.00000
O183 O 0.55868 0.98343 0.56271 0.00000
O184 O 0.56394 0.99627 0.46696 0.00000
O185 O 0.56059 0.10790 0.46601 0.00000
O186 O 0.50414 0.10642 0.59045 0.00000
O187 O 0.49620 0.19056 0.57647 0.00000
O188 O 0.43761 0.00325 0.61810 0.00000
O189 O 0.45868 0.94958 0.63703 0.00000
O190 O 0.54836 0.25032 0.50342 0.00000
O191 O 0.55284 0.17873 0.52301 0.00000
O192 O 0.51637 0.79778 0.59327 0.00000
O193 O 0.51330 0.88613 0.58005 0.00000
O194 O 0.48169 0.05932 0.46127 0.00000
O195 O 0.51370 0.02005 0.43993 0.00000
O196 O 0.49794 0.03576 0.53276 0.00000
O197 O 0.55097 0.20894 0.58615 0.00000
O198 O 0.51157 0.94024 0.64089 0.00000
O199 O 0.50933 0.01914 0.62357 0.00000
O200 O 0.49090 0.22046 0.49760 0.00000
O201 O 0.49991 0.15150 0.51683 0.00000
O202 O 0.46589 0.76354 0.56899 0.00000
O203 O 0.43745 0.81450 0.59396 0.00000
O204 O 0.99098 0.56646 0.54951 0.00000
C205 C 0.01045 0.84456 0.55814 0.00000
Dy206 Dy 0.05268 0.51756 0.56586 0.00000
Dy207 Dy 0.04316 0.31124 0.56600 0.00000
Dy208 Dy 0.01247 0.69088 0.57017 0.00000
C209 C 0.06218 0.33595 0.52604 0.00000
O210 O 0.05139 0.73478 0.59288 0.00000
Dy211 Dy 0.96554 0.74062 0.52937 0.00000
C212 C 0.05589 0.59720 0.53061 0.00000
C213 C 0.92683 0.63337 0.49773 0.00000
C214 C 0.99990 0.72858 0.48409 0.00000
C215 C 0.99382 0.49674 0.54010 0.00000
C216 C 0.07148 0.71213 0.59603 0.00000
C217 C 0.08169 0.43871 0.59731 0.00000
C218 C 0.95258 0.73271 0.57368 0.00000
C219 C 0.01376 0.62372 0.60865 0.00000
C220 C 0.00267 0.19887 0.54061 0.00000
C221 C 0.01973 0.35156 0.61862 0.00000
O222 O 0.02730 0.58150 0.59316 0.00000
O223 O 0.00320 0.67184 0.60453 0.00000
O224 O 0.00321 0.38304 0.61382 0.00000
O225 O 0.03798 0.33085 0.60615 0.00000
O226 O 0.03930 0.63096 0.54391 0.00000
O227 O 0.06453 0.54374 0.53335 0.00000
O228 O 0.00355 0.66343 0.48015 0.00000
O229 O 0.98903 0.77180 0.50240 0.00000
O230 O 0.08357 0.37060 0.58660 0.00000
O231 O 0.06230 0.46500 0.59294 0.00000
O232 O 0.94336 0.77991 0.56807 0.00000
O233 O 0.97029 0.70014 0.56216 0.00000
O234 O 0.01702 0.22583 0.52941 0.00000
O235 O 0.00594 0.22129 0.56395 0.00000
O236 O 0.01403 0.47518 0.54320 0.00000
O237 O 0.07456 0.64224 0.58692 0.00000
O238 O 0.98995 0.86105 0.55545 0.00000
O239 O 0.01378 0.77372 0.55095 0.00000
O240 O 0.06993 0.28469 0.53061 0.00000
O241 O 0.04979 0.38327 0.54139 0.00000
O242 O 0.92799 0.64941 0.52010 0.00000
O243 O 0.94316 0.66527 0.48850 0.00000
O244 O 0.54629 0.36191 0.04313 0.00000
C245 C 0.48154 0.48037 0.10409 0.00000
Dy246 Dy 0.55454 0.47404 0.00408 0.00000
Dy247 Dy 0.59970 0.38619 0.95142 0.00000
Dy248 Dy 0.50995 0.41543 0.05130 0.00000
C249 C 0.61620 0.51949 0.99563 0.00000
O250 O 0.49216 0.48514 0.03359 0.00000
Dy251 Dy 0.51528 0.38857 0.11320 0.00000
C252 C 0.55493 0.57445 0.06033 0.00000
C253 C 0.55178 0.31719 0.12339 0.00000
C254 C 0.54402 0.55839 0.15094 0.00000
C255 C 0.56690 0.36600 0.03403 0.00000
C256 C 0.49745 0.52379 0.02132 0.00000
C257 C 0.55883 0.46393 0.94687 0.00000
C258 C 0.49337 0.26758 0.06799 0.00000
C259 C 0.50554 0.32416 0.99431 0.00000
C260 C 0.63402 0.29666 0.95418 0.00000
C261 C 0.56184 0.23708 0.91200 0.00000
O262 O 0.52407 0.37585 0.99694 0.00000
O263 O 0.49592 0.31967 0.01275 0.00000
O264 O 0.55574 0.21350 0.92771 0.00000
O265 O 0.57446 0.30164 0.91644 0.00000
O266 O 0.53912 0.51657 0.05820 0.00000
O267 O 0.56628 0.57503 0.04221 0.00000
O268 O 0.56098 0.55731 0.13723 0.00000
O269 O 0.52415 0.51033 0.14518 0.00000
O270 O 0.57966 0.46855 0.93967 0.00000
O271 O 0.55341 0.43056 0.96122 0.00000
O272 O 0.48483 0.26916 0.08751 0.00000
O273 O 0.50811 0.32529 0.06845 0.00000
O274 O 0.63499 0.36333 0.97042 0.00000
O275 O 0.61745 0.26700 0.93576 0.00000
O276 O 0.57199 0.40536 0.02208 0.00000
O277 O 0.51798 0.52784 0.01184 0.00000
O278 O 0.47735 0.43793 0.11434 0.00000
O279 O 0.50132 0.48111 0.09236 0.00000
O280 O 0.62604 0.51495 0.97636 0.00000
O281 O 0.59670 0.47259 0.99431 0.00000
O282 O 0.53695 0.28203 0.10462 0.00000
O283 O 0.55083 0.38666 0.13861 0.00000
N284 N 0.44160 0.75468 0.47685 0.00000
Cd285 Cd 0.41312 0.66360 0.44662 0.00000
H286 H 0.32595 0.50292 0.40339 0.00000
H287 H 0.38233 0.41145 0.36617 0.00000
H288 H 0.40995 0.51906 0.39464 0.00000
H289 H 0.35459 0.60196 0.43129 0.00000
H290 H 0.50029 0.82427 0.48984 0.00000
H291 H 0.44391 0.91575 0.52707 0.00000
H292 H 0.41629 0.80813 0.49859 0.00000
H293 H 0.47165 0.72523 0.46195 0.00000
C294 C 0.35141 0.44285 0.38266 0.00000
C295 C 0.34331 0.50292 0.40152 0.00000
C296 C 0.37606 0.44994 0.37967 0.00000
C297 C 0.39259 0.51520 0.39686 0.00000
C298 C 0.36077 0.56326 0.41773 0.00000
C299 C 0.47483 0.88435 0.51058 0.00000
C300 C 0.48293 0.82428 0.49172 0.00000
C301 C 0.45019 0.87725 0.51356 0.00000
C302 C 0.43365 0.81199 0.49637 0.00000
C303 C 0.46547 0.76393 0.47550 0.00000
N304 N 0.38464 0.57251 0.41638 0.00000
N305 N 0.87495 0.50082 0.57681 0.00000
Cd306 Cd 0.83831 0.42729 0.57697 0.00000
H307 H 0.76566 0.31026 0.61279 0.00000
H308 H 0.76242 0.20176 0.53937 0.00000
H309 H 0.79621 0.29368 0.54055 0.00000
H310 H 0.79982 0.39289 0.61205 0.00000
H311 H 0.91097 0.54432 0.54116 0.00000
H312 H 0.91420 0.65283 0.61458 0.00000
H313 H 0.88041 0.56091 0.61340 0.00000
H314 H 0.87680 0.46170 0.54190 0.00000
C315 C 0.76152 0.24279 0.57597 0.00000
C316 C 0.77208 0.30334 0.59753 0.00000
C317 C 0.76998 0.24055 0.55478 0.00000
C318 C 0.79030 0.29641 0.55563 0.00000
C319 C 0.79218 0.35394 0.59668 0.00000
C320 C 0.91510 0.61180 0.57798 0.00000
C321 C 0.90455 0.55125 0.55642 0.00000
C322 C 0.90664 0.61404 0.59917 0.00000
C323 C 0.88632 0.55817 0.59831 0.00000
C324 C 0.88445 0.50065 0.55727 0.00000
N325 N 0.80167 0.35376 0.57714 0.00000
N326 N 0.54360 0.63067 0.56913 0.00000
Cd327 Cd 0.55775 0.53460 0.57561 0.00000
H328 H 0.61551 0.33410 0.56995 0.00000
H329 H 0.55165 0.30109 0.59852 0.00000
H330 H 0.54169 0.41384 0.59744 0.00000
H331 H 0.60307 0.43932 0.56774 0.00000
H332 H 0.49999 0.73510 0.58128 0.00000
H333 H 0.56384 0.76811 0.55270 0.00000
H334 H 0.57381 0.65536 0.55378 0.00000
H335 H 0.51242 0.62988 0.58348 0.00000
C336 C 0.58376 0.30243 0.58278 0.00000
C337 C 0.59964 0.34728 0.57495 0.00000
C338 C 0.56261 0.32837 0.59182 0.00000
C339 C 0.55678 0.39663 0.59121 0.00000
C340 C 0.59217 0.41179 0.57443 0.00000
C341 C 0.53173 0.76677 0.56844 0.00000
C342 C 0.51586 0.72192 0.57627 0.00000
C343 C 0.55288 0.74083 0.55941 0.00000
C344 C 0.55871 0.67257 0.56001 0.00000
C345 C 0.52332 0.65742 0.57679 0.00000
N346 N 0.57189 0.43853 0.58209 0.00000
N347 N 0.60857 0.42471 0.51992 0.00000
Cd348 Cd 0.62572 0.52531 0.51202 0.00000
H349 H 0.65855 0.67229 0.46026 0.00000
H350 H 0.67753 0.79648 0.53237 0.00000
H351 H 0.65351 0.69811 0.53932 0.00000
H352 H 0.63743 0.57708 0.46886 0.00000
H353 H 0.59289 0.37832 0.56378 0.00000
H354 H 0.57391 0.25413 0.49167 0.00000
H355 H 0.59792 0.35249 0.48472 0.00000
H356 H 0.61401 0.47353 0.55517 0.00000
C357 C 0.67208 0.74274 0.49554 0.00000
C358 C 0.65869 0.67837 0.47681 0.00000
C359 C 0.66955 0.75112 0.51878 0.00000
C360 C 0.65494 0.69169 0.52283 0.00000
C361 C 0.64545 0.62260 0.48239 0.00000
C362 C 0.57936 0.30786 0.52850 0.00000
C363 C 0.59275 0.37223 0.54723 0.00000
C364 C 0.58189 0.29949 0.50526 0.00000
C365 C 0.59650 0.35891 0.50121 0.00000
C366 C 0.60598 0.42801 0.54164 0.00000
N367 N 0.64287 0.62590 0.50411 0.00000
N368 N 0.10446 0.48298 0.46923 0.00000
Cd369 Cd 0.12219 0.40365 0.43567 0.00000
H370 H 0.14137 0.14618 0.36660 0.00000
H371 H 0.18850 0.32855 0.37066 0.00000
H372 H 0.16478 0.40765 0.40055 0.00000
H373 H 0.12083 0.22792 0.39732 0.00000
H374 H 0.10302 0.66112 0.50474 0.00000
H375 H 0.05589 0.47874 0.50068 0.00000
H376 H 0.07961 0.39964 0.47080 0.00000
H377 H 0.12356 0.57937 0.47402 0.00000
C378 C 0.16858 0.22885 0.36667 0.00000
C379 C 0.14732 0.19994 0.37388 0.00000
C380 C 0.17462 0.30599 0.37602 0.00000
C381 C 0.16015 0.35335 0.39396 0.00000
C382 C 0.13474 0.25018 0.39189 0.00000
C383 C 0.07581 0.57844 0.50467 0.00000
C384 C 0.09707 0.60735 0.49746 0.00000
C385 C 0.06977 0.50130 0.49533 0.00000
C386 C 0.08423 0.45394 0.47739 0.00000
C387 C 0.10965 0.55711 0.47946 0.00000
N388 N 0.13993 0.32431 0.40212 0.00000
N389 N 0.15983 0.60161 0.66280 0.00000
Cd390 Cd 0.18915 0.69047 0.69264 0.00000
H391 H 0.26327 0.91943 0.73305 0.00000
H392 H 0.24722 0.80979 0.77531 0.00000
H393 H 0.21295 0.73433 0.74664 0.00000
H394 H 0.23072 0.83856 0.70525 0.00000
H395 H 0.11502 0.46151 0.65222 0.00000
H396 H 0.13107 0.57115 0.60996 0.00000
H397 H 0.16534 0.64662 0.63863 0.00000
H398 H 0.14757 0.54239 0.68002 0.00000
C399 C 0.25995 0.86897 0.75646 0.00000
C400 C 0.25381 0.87975 0.73601 0.00000
C401 C 0.24436 0.81659 0.76078 0.00000
C402 C 0.22365 0.77153 0.74345 0.00000
C403 C 0.23368 0.83201 0.71983 0.00000
C404 C 0.11834 0.51198 0.62881 0.00000
C405 C 0.12449 0.50119 0.64925 0.00000
C406 C 0.13393 0.56435 0.62449 0.00000
C407 C 0.15464 0.60942 0.64182 0.00000
C408 C 0.14461 0.54894 0.66544 0.00000
N409 N 0.21847 0.77933 0.72246 0.00000
N410 N 0.93861 0.62649 0.52559 0.00000
Cd411 Cd 0.90861 0.69447 0.52234 0.00000
H412 H 0.83331 0.75916 0.48284 0.00000
H413 H 0.86582 0.93856 0.54388 0.00000
H414 H 0.89156 0.85788 0.54947 0.00000
H415 H 0.86070 0.68724 0.48884 0.00000
H416 H 0.98391 0.62978 0.56183 0.00000
H417 H 0.95140 0.45038 0.50079 0.00000
H418 H 0.92565 0.53106 0.49520 0.00000
H419 H 0.95651 0.70170 0.55583 0.00000
C420 C 0.84802 0.85915 0.51191 0.00000
C421 C 0.84578 0.78232 0.49636 0.00000
C422 C 0.86449 0.88661 0.53201 0.00000
C423 C 0.87987 0.83750 0.53532 0.00000
C424 C 0.86195 0.73927 0.50066 0.00000
C425 C 0.96919 0.52979 0.53276 0.00000
C426 C 0.97143 0.60661 0.54831 0.00000
C427 C 0.95273 0.50233 0.51266 0.00000
C428 C 0.93734 0.55144 0.50935 0.00000
C429 C 0.95527 0.64966 0.54401 0.00000
N430 N 0.87860 0.76245 0.51909 0.00000
N431 N 0.46145 0.33574 0.65397 0.00000
Cd432 Cd 0.45422 0.45143 0.68321 0.00000
H433 H 0.46711 0.70119 0.76631 0.00000
H434 H 0.40196 0.67139 0.72857 0.00000
H435 H 0.41408 0.56431 0.69623 0.00000
H436 H 0.47620 0.59226 0.73464 0.00000
H437 H 0.44132 0.20167 0.60011 0.00000
H438 H 0.50647 0.23147 0.63785 0.00000
H439 H 0.49435 0.33855 0.67019 0.00000
H440 H 0.43224 0.31059 0.63178 0.00000
C441 C 0.43240 0.69458 0.75158 0.00000
C442 C 0.45526 0.67255 0.75245 0.00000
C443 C 0.41744 0.65582 0.73043 0.00000
C444 C 0.42493 0.59150 0.71095 0.00000
C445 C 0.46073 0.60811 0.73289 0.00000
C446 C 0.47604 0.20828 0.61484 0.00000
C447 C 0.45318 0.23031 0.61397 0.00000
C448 C 0.49099 0.24703 0.63599 0.00000
C449 C 0.48351 0.31135 0.65547 0.00000
C450 C 0.44771 0.29475 0.63354 0.00000
N451 N 0.44699 0.56711 0.71245 0.00000
N452 N 0.42392 0.40697 0.14310 0.00000
Cd453 Cd 0.40340 0.33588 0.16115 0.00000
H454 H 0.34776 0.10351 0.16730 0.00000
H455 H 0.36194 0.28720 0.23237 0.00000
H456 H 0.38842 0.34889 0.21345 0.00000
H457 H 0.37226 0.17102 0.15023 0.00000
H458 H 0.45904 0.56825 0.15500 0.00000
H459 H 0.44486 0.38455 0.08993 0.00000
H460 H 0.41839 0.32287 0.10885 0.00000
H461 H 0.43454 0.50074 0.17207 0.00000
C462 C 0.35065 0.19094 0.20159 0.00000
C463 C 0.35515 0.15535 0.17724 0.00000
C464 C 0.36357 0.26187 0.21518 0.00000
C465 C 0.37960 0.29857 0.20366 0.00000
C466 C 0.37056 0.19609 0.16742 0.00000
C467 C 0.45616 0.48082 0.12071 0.00000
C468 C 0.45165 0.51640 0.14506 0.00000
C469 C 0.44323 0.40989 0.10712 0.00000
C470 C 0.42720 0.37318 0.11864 0.00000
C471 C 0.43625 0.47566 0.15488 0.00000
N472 N 0.38289 0.26479 0.17920 0.00000
N473 N 0.47174 0.50087 0.95959 0.00000
Cd474 Cd 0.46477 0.59319 0.94721 0.00000
H475 H 0.47270 0.86552 0.94803 0.00000
H476 H 0.41664 0.71709 0.90069 0.00000
H477 H 0.42955 0.62004 0.90965 0.00000
H478 H 0.48241 0.76833 0.95701 0.00000
H479 H 0.45684 0.32087 0.94638 0.00000
H480 H 0.51290 0.46930 0.99372 0.00000
H481 H 0.49999 0.56635 0.98476 0.00000
H482 H 0.44713 0.41805 0.93741 0.00000
C483 C 0.44214 0.80269 0.92462 0.00000
C484 C 0.46275 0.81596 0.94041 0.00000
C485 C 0.43028 0.72955 0.91265 0.00000
C486 C 0.43824 0.67124 0.91807 0.00000
C487 C 0.46879 0.75620 0.94505 0.00000
C488 C 0.48740 0.38369 0.96979 0.00000
C489 C 0.46679 0.37043 0.95401 0.00000
C490 C 0.49926 0.45684 0.98176 0.00000
C491 C 0.49130 0.51515 0.97634 0.00000
C492 C 0.46076 0.43019 0.94937 0.00000
N493 N 0.45780 0.68551 0.93482 0.00000
N494 N 0.56594 0.35706 0.86509 0.00000
Cd495 Cd 0.56718 0.30040 0.82322 0.00000
H496 H 0.54121 0.10437 0.73128 0.00000
H497 H 0.60735 0.23500 0.73941 0.00000
H498 H 0.60123 0.30447 0.78130 0.00000
H499 H 0.53806 0.17143 0.77274 0.00000
H500 H 0.59315 0.49643 0.91517 0.00000
H501 H 0.52701 0.36580 0.90703 0.00000
H502 H 0.53312 0.29634 0.86515 0.00000
H503 H 0.59630 0.42937 0.87371 0.00000
C504 C 0.57582 0.15895 0.73123 0.00000
C505 C 0.55446 0.14363 0.74128 0.00000
C506 C 0.59283 0.22007 0.74590 0.00000
C507 C 0.58896 0.26192 0.77112 0.00000
C508 C 0.55254 0.18612 0.76614 0.00000
C509 C 0.55853 0.44185 0.91521 0.00000
C510 C 0.57989 0.45716 0.90517 0.00000
C511 C 0.54152 0.38073 0.90055 0.00000
C512 C 0.54539 0.33888 0.87532 0.00000
C513 C 0.58181 0.41468 0.88030 0.00000
N514 N 0.56842 0.24374 0.78136 0.00000
N515 N 0.59968 0.48216 0.21087 0.00000
Cd516 Cd 0.62333 0.57283 0.24541 0.00000
H517 H 0.69691 0.69542 0.31523 0.00000
H518 H 0.64201 0.82138 0.32911 0.00000
H519 H 0.62215 0.73584 0.28995 0.00000
H520 H 0.67502 0.61197 0.27835 0.00000
H521 H 0.54974 0.45023 0.17560 0.00000
H522 H 0.60464 0.32427 0.16172 0.00000
H523 H 0.62450 0.40981 0.20088 0.00000
H524 H 0.57163 0.53368 0.21247 0.00000
C525 C 0.67067 0.76475 0.32711 0.00000
C526 C 0.68100 0.70402 0.31099 0.00000
C527 C 0.64921 0.77788 0.31901 0.00000
C528 C 0.63739 0.72622 0.29532 0.00000
C529 C 0.66790 0.65561 0.28854 0.00000
C530 C 0.57598 0.38091 0.16371 0.00000
C531 C 0.56565 0.44163 0.17984 0.00000
C532 C 0.59744 0.36778 0.17182 0.00000
C533 C 0.60926 0.41943 0.19551 0.00000
C534 C 0.57875 0.49004 0.20229 0.00000
N535 N 0.64697 0.66350 0.27996 0.00000
loop_
_geom_bond_atom_site_label_1
_geom_bond_atom_site_label_2
_geom_bond_distance
_geom_bond_site_symmetry_2
_ccdc_geom_bond_type
N0 Cd1 2.382 . S
N0 C29 1.325 . A
N0 C30 1.331 . A
Cd1 N2 2.352 . S
Cd1 N39 2.381 . S
Cd1 N40 2.352 . S
N2 C34 1.330 . A
N2 C35 1.339 . A
H3 C19 1.092 . S
H4 C20 0.986 . S
H5 C21 1.014 . S
H6 C22 0.966 . S
H7 C24 0.955 . S
H8 C25 0.923 . S
H9 C26 0.894 . S
H10 C27 0.890 . S
H11 C29 1.092 . S
H12 C30 0.986 . S
H13 C31 1.014 . S
H14 C32 0.966 . S
H15 C34 0.955 . S
H16 C35 0.923 . S
H17 C36 0.894 . S
H18 C37 0.891 . S
C19 C21 1.381 . A
C19 N39 1.325 . A
C20 C22 1.383 . A
C20 N39 1.331 . A
C21 C23 1.373 . A
C22 C23 1.382 . A
C24 C26 1.379 . A
C24 N40 1.330 . A
C25 C27 1.370 . A
C25 N40 1.339 . A
C26 C28 1.377 . A
C27 C28 1.381 . A
C29 C31 1.381 . A
C30 C32 1.383 . A
C31 C33 1.373 . A
C32 C33 1.382 . A
C34 C36 1.379 . A
C35 C37 1.370 . A
C36 C38 1.377 . A
C37 C38 1.381 . A
N41 Cd42 2.382 . S
N41 C70 1.325 . A
N41 C71 1.331 . A
Cd42 N43 2.352 . S
Cd42 N80 2.381 1_545 S
Cd42 N81 2.352 . S
N43 C75 1.330 . A
N43 C76 1.339 . A
H44 C60 1.092 1_545 S
H45 C61 0.986 . S
H46 C62 1.014 . S
H47 C63 0.966 . S
H48 C65 0.955 . S
H49 C66 0.923 . S
H50 C67 0.894 . S
H51 C68 0.890 . S
H52 C70 1.092 . S
H53 C71 0.986 . S
H54 C72 1.014 . S
H55 C73 0.966 . S
H56 C75 0.955 1_565 S
H57 C76 0.923 . S
H58 C77 0.894 1_565 S
H59 C78 0.891 . S
C60 C62 1.381 . A
C60 N80 1.325 . A
C61 C63 1.383 . A
C61 N80 1.331 . A
C62 C64 1.373 . A
C63 C64 1.382 . A
C65 C67 1.379 . A
C65 N81 1.330 . A
C66 C68 1.370 . A
C66 N81 1.339 . A
C67 C69 1.377 . A
C68 C69 1.381 . A
C70 C72 1.381 . A
C71 C73 1.383 . A
C72 C74 1.373 . A
C73 C74 1.382 . A
C75 C77 1.379 . A
C76 C78 1.370 . A
C77 C79 1.377 . A
C78 C79 1.381 . A
N82 Cd83 2.382 . S
N82 C111 1.325 . A
N82 C112 1.331 . A
Cd83 N84 2.352 . S
Cd83 N121 2.381 1_565 S
Cd83 N122 2.352 . S
N84 C116 1.330 1_565 A
N84 C117 1.339 . A
H85 C101 1.092 . S
H86 C102 0.986 . S
H87 C103 1.014 . S
H88 C104 0.966 . S
H89 C106 0.955 . S
H90 C107 0.923 . S
H91 C108 0.894 . S
H92 C109 0.890 . S
H93 C111 1.092 . S
H94 C112 0.986 . S
H95 C113 1.014 . S
H96 C114 0.966 . S
H97 C116 0.955 . S
H98 C117 0.923 . S
H99 C118 0.894 . S
H100 C119 0.891 . S
C101 C103 1.381 . A
C101 N121 1.325 . A
C102 C104 1.383 . A
C102 N121 1.331 . A
C103 C105 1.373 . A
C104 C105 1.382 . A
C106 C108 1.379 . A
C106 N122 1.330 . A
C107 C109 1.370 . A
C107 N122 1.339 . A
C108 C110 1.377 . A
C109 C110 1.381 . A
C111 C113 1.381 . A
C112 C114 1.383 . A
C113 C115 1.373 . A
C114 C115 1.382 . A
C116 C118 1.379 . A
C117 C119 1.370 . A
C118 C120 1.377 1_545 A
C119 C120 1.381 . A
N123 Cd124 2.382 . S
N123 C152 1.325 . A
N123 C153 1.331 . A
Cd124 N125 2.352 . S
Cd124 N162 2.381 . S
Cd124 N163 2.352 . S
N125 C157 1.330 . A
N125 C158 1.339 . A
H126 C142 1.092 . S
H127 C143 0.986 . S
H128 C144 1.014 . S
H129 C145 0.966 1_545 S
H130 C147 0.955 . S
H131 C148 0.923 . S
H132 C149 0.894 . S
H133 C150 0.890 . S
H134 C152 1.092 . S
H135 C153 0.986 . S
H136 C154 1.014 . S
H137 C155 0.966 . S
H138 C157 0.955 . S
H139 C158 0.923 . S
H140 C159 0.894 . S
H141 C160 0.891 . S
C142 C144 1.381 . A
C142 N162 1.325 . A
C143 C145 1.383 . A
C143 N162 1.331 . A
C144 C146 1.373 . A
C145 C146 1.382 . A
C147 C149 1.379 . A
C147 N163 1.330 . A
C148 C150 1.370 . A
C148 N163 1.339 . A
C149 C151 1.377 . A
C150 C151 1.381 . A
C152 C154 1.381 . A
C153 C155 1.383 . A
C154 C156 1.373 . A
C155 C156 1.382 . A
C157 C159 1.379 . A
C158 C160 1.370 . A
C159 C161 1.377 . A
C160 C161 1.381 . A
O164 C175 1.262 . A
O164 Dy168 2.317 1_565 S
C165 O198 1.223 1_545 D
C165 O199 1.297 . S
Dy166 O182 2.228 . S
Dy166 O187 2.300 . S
Dy166 O191 2.340 . S
Dy166 O196 2.317 . S
Dy166 O197 2.330 . S
Dy166 O201 2.372 . S
Dy167 O185 2.306 . S
Dy167 O190 2.374 . S
Dy167 O191 2.758 . S
Dy167 O194 2.392 . S
Dy167 O195 2.445 . S
Dy167 O200 2.509 . S
Dy167 O201 2.431 . S
Dy168 O170 2.330 . S
Dy168 O183 2.300 1_545 S
Dy168 O186 2.228 . S
Dy168 O193 2.372 1_545 S
Dy168 O199 2.340 . S
C169 O200 1.259 . D
C169 O201 1.275 . S
O170 C176 1.268 . A
Dy171 O189 2.306 . S
Dy171 O192 2.509 . S
Dy171 O193 2.431 . S
Dy171 O198 2.375 . S
Dy171 O199 2.758 1_565 S
Dy171 O202 2.392 . S
Dy171 O203 2.445 . S
C172 O186 1.275 . A
C172 O187 1.265 . A
C173 O202 1.241 . A
C173 O203 1.279 . A
C174 O188 1.244 1_565 D
C174 O189 1.260 . S
C175 O196 1.262 1_565 A
C176 O197 1.268 . A
C177 O190 1.223 . D
C177 O191 1.297 . S
C178 O192 1.259 . D
C178 O193 1.275 . S
C179 O182 1.275 . A
C179 O183 1.265 1_545 A
C180 O194 1.242 . A
C180 O195 1.279 . A
C181 O184 1.244 1_545 D
C181 O185 1.260 . S
O204 C215 1.262 . A
O204 Dy208 2.317 1_655 S
C205 O238 1.223 1_455 D
C205 O239 1.297 . S
Dy206 O222 2.228 . S
Dy206 O227 2.300 . S
Dy206 O231 2.340 . S
Dy206 O236 2.317 . S
Dy206 O237 2.330 . S
Dy206 O241 2.372 . S
Dy207 O225 2.306 . S
Dy207 O230 2.374 . S
Dy207 O231 2.758 . S
Dy207 O234 2.392 . S
Dy207 O235 2.445 . S
Dy207 O240 2.509 . S
Dy207 O241 2.431 . S
Dy208 O210 2.330 . S
Dy208 O223 2.300 . S
Dy208 O226 2.228 . S
Dy208 O233 2.372 1_455 S
Dy208 O239 2.340 . S
C209 O240 1.259 . D
C209 O241 1.275 . S
O210 C216 1.268 . A
Dy211 O229 2.306 . S
Dy211 O232 2.509 . S
Dy211 O233 2.431 . S
Dy211 O238 2.375 . S
Dy211 O239 2.758 1_655 S
Dy211 O242 2.392 . S
Dy211 O243 2.445 . S
C212 O226 1.275 . A
C212 O227 1.265 . A
C213 O242 1.241 . A
C213 O243 1.279 . A
C214 O228 1.231 1_655 D
C214 O229 1.282 . S
C215 O236 1.262 1_655 A
C216 O237 1.268 . A
C217 O230 1.223 . D
C217 O231 1.297 . S
C218 O232 1.259 . D
C218 O233 1.275 . S
C219 O222 1.275 . A
C219 O223 1.265 . A
C220 O234 1.242 . A
C220 O235 1.279 . A
C221 O224 1.244 . D
C221 O225 1.260 . S
O244 C255 1.262 . A
O244 Dy248 2.317 . S
C245 O278 1.223 . D
C245 O279 1.297 . S
Dy246 O262 2.228 1_554 S
Dy246 O267 2.300 . S
Dy246 O271 2.340 1_554 S
Dy246 O276 2.317 . S
Dy246 O277 2.330 . S
Dy246 O281 2.372 1_554 S
Dy247 O265 2.306 . S
Dy247 O270 2.374 . S
Dy247 O271 2.758 . S
Dy247 O274 2.392 . S
Dy247 O275 2.445 . S
Dy247 O280 2.509 . S
Dy247 O281 2.431 . S
Dy248 O250 2.330 . S
Dy248 O263 2.300 . S
Dy248 O266 2.228 . S
Dy248 O273 2.372 . S
Dy248 O279 2.340 . S
C249 O280 1.259 . D
C249 O281 1.275 . S
O250 C256 1.268 . A
Dy251 O269 2.306 . S
Dy251 O272 2.509 . S
Dy251 O273 2.431 . S
Dy251 O278 2.375 . S
Dy251 O279 2.758 . S
Dy251 O282 2.392 . S
Dy251 O283 2.445 . S
C252 O266 1.275 . A
C252 O267 1.265 . A
C253 O282 1.241 . A
C253 O283 1.279 . A
C254 O268 1.244 . D
C254 O269 1.260 . S
C255 O276 1.262 . A
C256 O277 1.268 . A
C257 O270 1.223 . D
C257 O271 1.297 . S
C258 O272 1.259 . D
C258 O273 1.275 . S
C259 O262 1.275 . A
C259 O263 1.265 1_556 A
C260 O274 1.242 . A
C260 O275 1.279 . A
C261 O264 1.244 . D
C261 O265 1.260 . S
N284 Cd285 2.285 . S
N284 C302 1.359 . A
N284 C303 1.290 . A
Cd285 N304 2.285 . S
H286 C295 0.950 . S
H287 C296 0.949 . S
H288 C297 0.950 . S
H289 C298 0.950 . S
H290 C300 0.950 . S
H291 C301 0.949 . S
H292 C302 0.950 . S
H293 C303 0.950 . S
C294 C295 1.372 . A
C294 C296 1.347 . A
C295 C298 1.381 . A
C296 C297 1.420 . A
C297 N304 1.359 . A
C298 N304 1.290 . A
C299 C300 1.371 . A
C299 C301 1.347 . A
C300 C303 1.381 . A
C301 C302 1.420 . A
N305 Cd306 2.285 . S
N305 C323 1.359 . A
N305 C324 1.290 . A
Cd306 N325 2.285 . S
H307 C316 0.950 . S
H308 C317 0.949 . S
H309 C318 0.950 . S
H310 C319 0.950 . S
H311 C321 0.950 . S
H312 C322 0.949 . S
H313 C323 0.950 . S
H314 C324 0.950 . S
C315 C316 1.372 . A
C315 C317 1.347 . A
C316 C319 1.381 . A
C317 C318 1.420 . A
C318 N325 1.359 . A
C319 N325 1.290 . A
C320 C321 1.371 . A
C320 C322 1.347 . A
C321 C324 1.381 . A
C322 C323 1.420 . A
N326 Cd327 2.285 . S
N326 C344 1.359 . A
N326 C345 1.290 . A
Cd327 N346 2.285 . S
H328 C337 0.950 . S
H329 C338 0.949 . S
H330 C339 0.950 . S
H331 C340 0.950 . S
H332 C342 0.950 . S
H333 C343 0.949 . S
H334 C344 0.950 . S
H335 C345 0.950 . S
C336 C337 1.372 . A
C336 C338 1.347 . A
C337 C340 1.381 . A
C338 C339 1.420 . A
C339 N346 1.359 . A
C340 N346 1.290 . A
C341 C342 1.371 . A
C341 C343 1.347 . A
C342 C345 1.381 . A
C343 C344 1.420 . A
N347 Cd348 2.285 . S
N347 C365 1.359 . A
N347 C366 1.290 . A
Cd348 N367 2.285 . S
H349 C358 0.950 . S
H350 C359 0.949 . S
H351 C360 0.950 . S
H352 C361 0.950 . S
H353 C363 0.950 . S
H354 C364 0.949 . S
H355 C365 0.950 . S
H356 C366 0.950 . S
C357 C358 1.372 . A
C357 C359 1.347 . A
C358 C361 1.381 . A
C359 C360 1.420 . A
C360 N367 1.359 . A
C361 N367 1.290 . A
C362 C363 1.371 . A
C362 C364 1.347 . A
C363 C366 1.381 . A
C364 C365 1.420 . A
N368 Cd369 2.285 . S
N368 C386 1.359 . A
N368 C387 1.290 . A
Cd369 N388 2.285 . S
H370 C379 0.950 . S
H371 C380 0.949 . S
H372 C381 0.950 . S
H373 C382 0.950 . S
H374 C384 0.950 . S
H375 C385 0.949 . S
H376 C386 0.950 . S
H377 C387 0.950 . S
C378 C379 1.372 . A
C378 C380 1.347 . A
C379 C382 1.381 . A
C380 C381 1.420 . A
C381 N388 1.359 . A
C382 N388 1.290 . A
C383 C384 1.371 . A
C383 C385 1.347 . A
C384 C387 1.381 . A
C385 C386 1.420 . A
N389 Cd390 2.285 . S
N389 C407 1.359 . A
N389 C408 1.290 . A
Cd390 N409 2.285 . S
H391 C400 0.950 . S
H392 C401 0.949 . S
H393 C402 0.950 . S
H394 C403 0.950 . S
H395 C405 0.950 . S
H396 C406 0.949 . S
H397 C407 0.950 . S
H398 C408 0.950 . S
C399 C400 1.372 . A
C399 C401 1.347 . A
C400 C403 1.381 . A
C401 C402 1.420 . A
C402 N409 1.359 . A
C403 N409 1.290 . A
C404 C405 1.371 . A
C404 C406 1.347 . A
C405 C408 1.381 . A
C406 C407 1.420 . A
N410 Cd411 2.285 . S
N410 C428 1.359 . A
N410 C429 1.290 . A
Cd411 N430 2.285 . S
H412 C421 0.950 . S
H413 C422 0.949 . S
H414 C423 0.950 . S
H415 C424 0.950 . S
H416 C426 0.950 . S
H417 C427 0.949 . S
H418 C428 0.950 . S
H419 C429 0.950 . S
C420 C421 1.372 . A
C420 C422 1.347 . A
C421 C424 1.381 . A
C422 C423 1.420 . A
C423 N430 1.359 . A
C424 N430 1.290 . A
C425 C426 1.371 . A
C425 C427 1.347 . A
C426 C429 1.381 . A
C427 C428 1.420 . A
N431 Cd432 2.285 . S
N431 C449 1.359 . A
N431 C450 1.290 . A
Cd432 N451 2.285 . S
H433 C442 0.950 . S
H434 C443 0.949 . S
H435 C444 0.950 . S
H436 C445 0.950 . S
H437 C447 0.950 . S
H438 C448 0.949 . S
H439 C449 0.950 . S
H440 C450 0.950 . S
C441 C442 1.372 . A
C441 C443 1.347 . A
C442 C445 1.381 . A
C443 C444 1.420 . A
C444 N451 1.359 . A
C445 N451 1.290 . A
C446 C447 1.371 . A
C446 C448 1.347 . A
C447 C450 1.381 . A
C448 C449 1.420 . A
N452 Cd453 2.285 . S
N452 C470 1.359 . A
N452 C471 1.290 . A
Cd453 N472 2.285 . S
H454 C463 0.950 . S
H455 C464 0.949 . S
H456 C465 0.950 . S
H457 C466 0.950 . S
H458 C468 0.950 . S
H459 C469 0.949 . S
H460 C470 0.950 . S
H461 C471 0.950 . S
C462 C463 1.372 . A
C462 C464 1.347 . A
C463 C466 1.381 . A
C464 C465 1.420 . A
C465 N472 1.359 . A
C466 N472 1.290 . A
C467 C468 1.371 . A
C467 C469 1.347 . A
C468 C471 1.381 . A
C469 C470 1.420 . A
N473 Cd474 2.285 . S
N473 C491 1.359 . A
N473 C492 1.290 . A
Cd474 N493 2.285 . S
H475 C484 0.950 . S
H476 C485 0.949 . S
H477 C486 0.950 . S
H478 C487 0.950 . S
H479 C489 0.950 . S
H480 C490 0.949 . S
H481 C491 0.950 . S
H482 C492 0.950 . S
C483 C484 1.372 . A
C483 C485 1.347 . A
C484 C487 1.381 . A
C485 C486 1.420 . A
C486 N493 1.359 . A
C487 N493 1.290 . A
C488 C489 1.371 . A
C488 C490 1.347 . A
C489 C492 1.381 . A
C490 C491 1.420 . A
N494 Cd495 2.285 . S
N494 C512 1.359 . A
N494 C513 1.290 . A
Cd495 N514 2.285 . S
H496 C505 0.950 . S
H497 C506 0.949 . S
H498 C507 0.950 . S
H499 C508 0.950 . S
H500 C510 0.950 . S
H501 C511 0.949 . S
H502 C512 0.950 . S
H503 C513 0.950 . S
C504 C505 1.372 . A
C504 C506 1.347 . A
C505 C508 1.381 . A
C506 C507 1.420 . A
C507 N514 1.359 . A
C508 N514 1.290 . A
C509 C510 1.371 . A
C509 C511 1.347 . A
C510 C513 1.381 . A
C511 C512 1.420 . A
N515 Cd516 2.285 . S
N515 C533 1.359 . A
N515 C534 1.290 . A
Cd516 N535 2.285 . S
H517 C526 0.950 . S
H518 C527 0.949 . S
H519 C528 0.950 . S
H520 C529 0.950 . S
H521 C531 0.950 . S
H522 C532 0.949 . S
H523 C533 0.950 . S
H524 C534 0.950 . S
C525 C526 1.372 . A
C525 C527 1.347 . A
C526 C529 1.381 . A
C527 C528 1.420 . A
C528 N535 1.359 . A
C529 N535 1.290 . A
C530 C531 1.371 . A
C530 C532 1.347 . A
C531 C534 1.381 . A
C532 C533 1.420 . A
C294 C38 1.843 . S
C299 C175 1.811 . S
C320 C218 2.990 . S
C315 C79 3.237 . S
C336 C69 1.503 . S
C341 C178 1.265 . S
C357 C110 1.321 . S
C362 C177 1.482 . S
C383 C212 1.850 . S
C378 C23 2.160 . S
C404 C217 2.516 . S
C399 C146 2.479 . S
C420 C120 2.236 . S
C425 C215 1.684 . S
C441 C161 1.760 . S
C446 C172 1.680 . S
C462 C28 1.930 . S
C467 C245 1.716 . S
C483 C151 2.373 . S
C488 C259 2.482 . S
C509 C257 1.762 . S
C504 C74 2.154 . S
C525 C115 2.662 . S
C530 C253 2.448 . S
