# Generated by pormake.
# Topology wjz, (5)-cn, num edge types: 1
# Building blocks:
#     Node 0, Type 0, BuildingBlock: N671, # of connection points: 5
#     Node 1, Type 0, BuildingBlock: N671, # of connection points: 5
#     Node 2, Type 0, BuildingBlock: N671, # of connection points: 5
#     Node 3, Type 0, BuildingBlock: N671, # of connection points: 5
#     Node 4, Type 0, BuildingBlock: N671, # of connection points: 5
#     Node 5, Type 0, BuildingBlock: N671, # of connection points: 5
#     Node 6, Type 0, BuildingBlock: N671, # of connection points: 5
#     Node 7, Type 0, BuildingBlock: N671, # of connection points: 5
#     Node 8, Type 0, BuildingBlock: N671, # of connection points: 5
#     Node 9, Type 0, BuildingBlock: N671, # of connection points: 5
#     Node 10, Type 0, BuildingBlock: N671, # of connection points: 5
#     Node 11, Type 0, BuildingBlock: N671, # of connection points: 5
#     Edge 12, Type (0, 0), BuildingBlock: E181, # of connection points: 2
#     Edge 13, Type (0, 0), BuildingBlock: E181, # of connection points: 2
#     Edge 14, Type (0, 0), BuildingBlock: E181, # of connection points: 2
#     Edge 15, Type (0, 0), BuildingBlock: E181, # of connection points: 2
#     Edge 16, Type (0, 0), BuildingBlock: E181, # of connection points: 2
#     Edge 17, Type (0, 0), BuildingBlock: E181, # of connection points: 2
#     Edge 18, Type (0, 0), BuildingBlock: E181, # of connection points: 2
#     Edge 19, Type (0, 0), BuildingBlock: E181, # of connection points: 2
#     Edge 20, Type (0, 0), BuildingBlock: E181, # of connection points: 2
#     Edge 21, Type (0, 0), BuildingBlock: E181, # of connection points: 2
#     Edge 22, Type (0, 0), BuildingBlock: E181, # of connection points: 2
#     Edge 23, Type (0, 0), BuildingBlock: E181, # of connection points: 2
#     Edge 24, Type (0, 0), BuildingBlock: E181, # of connection points: 2
#     Edge 25, Type (0, 0), BuildingBlock: E181, # of connection points: 2
#     Edge 26, Type (0, 0), BuildingBlock: E181, # of connection points: 2
#     Edge 27, Type (0, 0), BuildingBlock: E181, # of connection points: 2
#     Edge 28, Type (0, 0), BuildingBlock: E181, # of connection points: 2
#     Edge 29, Type (0, 0), BuildingBlock: E181, # of connection points: 2
#     Edge 30, Type (0, 0), BuildingBlock: E181, # of connection points: 2
#     Edge 31, Type (0, 0), BuildingBlock: E181, # of connection points: 2
#     Edge 32, Type (0, 0), BuildingBlock: E181, # of connection points: 2
#     Edge 33, Type (0, 0), BuildingBlock: E181, # of connection points: 2
#     Edge 34, Type (0, 0), BuildingBlock: E181, # of connection points: 2
#     Edge 35, Type (0, 0), BuildingBlock: E181, # of connection points: 2
#     Edge 36, Type (0, 0), BuildingBlock: E181, # of connection points: 2
#     Edge 37, Type (0, 0), BuildingBlock: E181, # of connection points: 2
#     Edge 38, Type (0, 0), BuildingBlock: E181, # of connection points: 2
#     Edge 39, Type (0, 0), BuildingBlock: E181, # of connection points: 2
#     Edge 40, Type (0, 0), BuildingBlock: E181, # of connection points: 2
#     Edge 41, Type (0, 0), BuildingBlock: E181, # of connection points: 2
# Relax obj value: 0.126
# Max RMSD: 0.182
# Mean RMSD: 0.182
data_wjz+N671+E181
_symmetry_space_group_name_H-M    P1
_symmetry_Int_Tables_number       1
_symmetry_cell_setting            triclinic
loop_
_symmetry_equiv_pos_as_xyz
'x, y, z'
_cell_length_a     63.422
_cell_length_b     63.413
_cell_length_c     13.353
_cell_angle_alpha  89.999
_cell_angle_beta   90.000
_cell_angle_gamma  120.021
loop_
_atom_site_label
_atom_site_type_symbol
_atom_site_fract_x
_atom_site_fract_y
_atom_site_fract_z
_atom_type_partial_charge
Zn0 Zn 0.09995 0.45339 0.51457 0.00000
Zn1 Zn 0.11422 0.42294 0.35189 0.00000
Zn2 Zn 0.15389 0.48103 0.40127 0.00000
C3 C 0.12702 0.46673 0.21620 0.00000
O4 O 0.14319 0.50414 0.47724 0.00000
O5 O 0.10295 0.48464 0.46829 0.00000
O6 O 0.10469 0.45728 0.66046 0.00000
O7 O 0.10311 0.42397 0.64862 0.00000
C8 C 0.16740 0.44347 0.33620 0.00000
C9 C 0.06291 0.41707 0.40955 0.00000
C10 C 0.12294 0.50362 0.47875 0.00000
O11 O 0.07894 0.42045 0.34408 0.00000
O12 O 0.06659 0.42851 0.49183 0.00000
O13 O 0.12652 0.45024 0.46127 0.00000
O14 O 0.14150 0.48463 0.27158 0.00000
O15 O 0.11925 0.44429 0.23485 0.00000
O16 O 0.14648 0.42449 0.34194 0.00000
O17 O 0.17319 0.46401 0.35930 0.00000
H18 H 0.10805 0.42785 0.58942 0.00000
C19 C 0.11125 0.44336 0.70228 0.00000
Zn20 Zn 0.64648 0.10000 0.68106 0.00000
Zn21 Zn 0.69121 0.11429 0.51839 0.00000
Zn22 Zn 0.67278 0.15394 0.56776 0.00000
C23 C 0.66022 0.12706 0.38269 0.00000
O24 O 0.63897 0.14321 0.64373 0.00000
O25 O 0.61823 0.10297 0.63477 0.00000
O26 O 0.64732 0.10473 0.82695 0.00000
O27 O 0.67906 0.10318 0.81512 0.00000
C28 C 0.72387 0.16749 0.50270 0.00000
C29 C 0.64576 0.06296 0.57606 0.00000
C30 C 0.61924 0.12296 0.64523 0.00000
O31 O 0.65841 0.07900 0.51059 0.00000
O32 O 0.63799 0.06663 0.65833 0.00000
O33 O 0.67620 0.12658 0.62777 0.00000
O34 O 0.65679 0.14154 0.43807 0.00000
O35 O 0.67489 0.11930 0.40135 0.00000
O36 O 0.72193 0.14657 0.50845 0.00000
O37 O 0.70911 0.17326 0.52579 0.00000
H38 H 0.68013 0.10812 0.75592 0.00000
C39 C 0.66781 0.11131 0.86878 0.00000
Zn40 Zn 0.64655 0.54659 0.45311 0.00000
Zn41 Zn 0.69129 0.57705 0.61579 0.00000
Zn42 Zn 0.67284 0.51895 0.56642 0.00000
C43 C 0.66028 0.53326 0.75148 0.00000
O44 O 0.63902 0.49585 0.49044 0.00000
O45 O 0.61829 0.51535 0.49939 0.00000
O46 O 0.64740 0.54270 0.30722 0.00000
O47 O 0.67914 0.57601 0.31906 0.00000
C48 C 0.72392 0.55651 0.63149 0.00000
C49 C 0.64584 0.58291 0.55812 0.00000
C50 C 0.61930 0.49636 0.48894 0.00000
O51 O 0.65850 0.57953 0.62360 0.00000
O52 O 0.63808 0.57147 0.47585 0.00000
O53 O 0.67627 0.54974 0.50641 0.00000
O54 O 0.65685 0.51536 0.69610 0.00000
O55 O 0.67496 0.55570 0.73283 0.00000
O56 O 0.72200 0.57550 0.62574 0.00000
O57 O 0.70917 0.53598 0.60839 0.00000
H58 H 0.68021 0.57214 0.37826 0.00000
C59 C 0.66789 0.55662 0.26540 0.00000
Zn60 Zn 0.09998 0.64646 0.61995 0.00000
Zn61 Zn 0.11428 0.69120 0.78261 0.00000
Zn62 Zn 0.15392 0.67276 0.73326 0.00000
C63 C 0.12704 0.66019 0.91832 0.00000
O64 O 0.14319 0.63894 0.65729 0.00000
O65 O 0.10295 0.61820 0.66624 0.00000
O66 O 0.10471 0.64730 0.47406 0.00000
O67 O 0.10317 0.67905 0.48589 0.00000
C68 C 0.16747 0.72385 0.79832 0.00000
C69 C 0.06295 0.64575 0.72494 0.00000
C70 C 0.12293 0.61921 0.65578 0.00000
O71 O 0.07899 0.65840 0.79042 0.00000
O72 O 0.06662 0.63798 0.64267 0.00000
O73 O 0.12656 0.67619 0.67324 0.00000
O74 O 0.14151 0.65677 0.86294 0.00000
O75 O 0.11929 0.67487 0.89966 0.00000
O76 O 0.14656 0.72192 0.79256 0.00000
O77 O 0.17324 0.70909 0.77523 0.00000
H78 H 0.10811 0.68012 0.54509 0.00000
C79 C 0.11130 0.66780 0.43223 0.00000
Zn80 Zn 0.90002 0.35353 0.11994 0.00000
Zn81 Zn 0.88572 0.30879 0.28261 0.00000
Zn82 Zn 0.84608 0.32723 0.23324 0.00000
C83 C 0.87296 0.33980 0.41831 0.00000
O84 O 0.85681 0.36105 0.15727 0.00000
O85 O 0.89705 0.38179 0.16622 0.00000
O86 O 0.89529 0.35269 0.97405 0.00000
O87 O 0.89683 0.32094 0.98589 0.00000
C88 C 0.83253 0.27614 0.29831 0.00000
C89 C 0.93705 0.35425 0.22495 0.00000
C90 C 0.87707 0.38079 0.15576 0.00000
O91 O 0.92100 0.34159 0.29042 0.00000
O92 O 0.93338 0.36201 0.14267 0.00000
O93 O 0.87344 0.32381 0.17324 0.00000
O94 O 0.85848 0.34322 0.36293 0.00000
O95 O 0.88071 0.32512 0.39965 0.00000
O96 O 0.85343 0.27807 0.29256 0.00000
O97 O 0.82675 0.29090 0.27521 0.00000
H98 H 0.89189 0.31987 0.04509 0.00000
C99 C 0.88870 0.33219 0.93222 0.00000
Zn100 Zn 0.54656 0.90004 0.28646 0.00000
Zn101 Zn 0.57701 0.88577 0.44913 0.00000
Zn102 Zn 0.51892 0.84610 0.39976 0.00000
C103 C 0.53323 0.87297 0.58483 0.00000
O104 O 0.49582 0.85680 0.32379 0.00000
O105 O 0.51532 0.89704 0.33274 0.00000
O106 O 0.54267 0.89531 0.14057 0.00000
O107 O 0.57597 0.89688 0.15241 0.00000
C108 C 0.55647 0.83258 0.46483 0.00000
C109 C 0.58288 0.93709 0.39147 0.00000
C110 C 0.49634 0.87705 0.32229 0.00000
O111 O 0.57949 0.92105 0.45694 0.00000
O112 O 0.57144 0.93341 0.30919 0.00000
O113 O 0.54971 0.87347 0.33976 0.00000
O114 O 0.51533 0.85849 0.52945 0.00000
O115 O 0.55567 0.88074 0.56617 0.00000
O116 O 0.57545 0.85350 0.45908 0.00000
O117 O 0.53594 0.82679 0.44173 0.00000
H118 H 0.57210 0.89194 0.21161 0.00000
C119 C 0.55659 0.88874 0.09874 0.00000
Zn120 Zn 0.35346 0.45343 0.95322 0.00000
Zn121 Zn 0.30873 0.42296 0.11591 0.00000
Zn122 Zn 0.32717 0.48106 0.06654 0.00000
C123 C 0.33974 0.46675 0.25160 0.00000
O124 O 0.36099 0.50417 0.99056 0.00000
O125 O 0.38172 0.48467 0.99990 0.00000
O126 O 0.35262 0.45731 0.80733 0.00000
O127 O 0.32087 0.42401 0.81918 0.00000
C128 C 0.27609 0.44350 0.13161 0.00000
C129 C 0.35417 0.41710 0.05823 0.00000
C130 C 0.38072 0.50365 0.98905 0.00000
O131 O 0.34152 0.42049 0.12370 0.00000
O132 O 0.36194 0.42855 0.97595 0.00000
O133 O 0.32374 0.45027 0.00653 0.00000
O134 O 0.34317 0.48465 0.19622 0.00000
O135 O 0.32506 0.44431 0.23294 0.00000
O136 O 0.27802 0.42452 0.12586 0.00000
O137 O 0.29085 0.46404 0.10851 0.00000
H138 H 0.31981 0.42788 0.87838 0.00000
C139 C 0.33212 0.44339 0.76551 0.00000
Zn140 Zn 0.45344 0.09996 0.78645 0.00000
Zn141 Zn 0.42298 0.11423 0.94912 0.00000
Zn142 Zn 0.48107 0.15390 0.89974 0.00000
C143 C 0.46677 0.12703 0.08481 0.00000
O144 O 0.50417 0.14320 0.82377 0.00000
O145 O 0.48467 0.10295 0.83273 0.00000
O146 O 0.45732 0.10469 0.64055 0.00000
O147 O 0.42402 0.10312 0.65239 0.00000
C148 C 0.44352 0.16742 0.96480 0.00000
C149 C 0.41712 0.06291 0.89146 0.00000
C150 C 0.50365 0.12295 0.82227 0.00000
O151 O 0.42050 0.07895 0.95693 0.00000
O152 O 0.42856 0.06659 0.80919 0.00000
O153 O 0.45029 0.12653 0.83974 0.00000
O154 O 0.48467 0.14151 0.02942 0.00000
O155 O 0.44433 0.11926 0.06615 0.00000
O156 O 0.42454 0.14650 0.95906 0.00000
O157 O 0.46406 0.17321 0.94170 0.00000
H158 H 0.42790 0.10806 0.71159 0.00000
C159 C 0.44341 0.11126 0.59872 0.00000
Zn160 Zn 0.54657 0.64654 0.84771 0.00000
Zn161 Zn 0.57703 0.69128 0.68503 0.00000
Zn162 Zn 0.51894 0.67283 0.73441 0.00000
C163 C 0.53324 0.66027 0.54934 0.00000
O164 O 0.49584 0.63901 0.81039 0.00000
O165 O 0.51533 0.61828 0.80144 0.00000
O166 O 0.54269 0.64738 0.99361 0.00000
O167 O 0.57599 0.67913 0.98176 0.00000
C168 C 0.55649 0.72392 0.66933 0.00000
C169 C 0.58289 0.64583 0.74270 0.00000
C170 C 0.49635 0.61928 0.81190 0.00000
O171 O 0.57951 0.65849 0.67723 0.00000
O172 O 0.57145 0.63807 0.82498 0.00000
O173 O 0.54972 0.67626 0.79441 0.00000
O174 O 0.51534 0.65684 0.60473 0.00000
O175 O 0.55568 0.67495 0.56800 0.00000
O176 O 0.57547 0.72200 0.67508 0.00000
O177 O 0.53596 0.70916 0.69243 0.00000
H178 H 0.57211 0.68020 0.92256 0.00000
C179 C 0.55660 0.66788 0.03543 0.00000
Zn180 Zn 0.90004 0.54659 0.01446 0.00000
Zn181 Zn 0.88578 0.57705 0.85178 0.00000
Zn182 Zn 0.84610 0.51895 0.90116 0.00000
C183 C 0.87298 0.53326 0.71609 0.00000
O184 O 0.85680 0.49585 0.97714 0.00000
O185 O 0.89704 0.51535 0.96819 0.00000
O186 O 0.89531 0.54271 0.16035 0.00000
O187 O 0.89689 0.57601 0.14851 0.00000
C188 C 0.83260 0.55652 0.83608 0.00000
C189 C 0.93709 0.58291 0.90945 0.00000
C190 C 0.87705 0.49637 0.97865 0.00000
O191 O 0.92105 0.57953 0.84397 0.00000
O192 O 0.93341 0.57147 0.99173 0.00000
O193 O 0.87348 0.54974 0.96116 0.00000
O194 O 0.85850 0.51536 0.77148 0.00000
O195 O 0.88075 0.55570 0.73474 0.00000
O196 O 0.85352 0.57550 0.84183 0.00000
O197 O 0.82681 0.53598 0.85918 0.00000
H198 H 0.89194 0.57214 0.08931 0.00000
C199 C 0.88874 0.55663 0.20218 0.00000
Zn200 Zn 0.35351 0.90000 0.18111 0.00000
Zn201 Zn 0.30878 0.88570 0.01845 0.00000
Zn202 Zn 0.32721 0.84606 0.06782 0.00000
C203 C 0.33977 0.87293 0.88275 0.00000
O204 O 0.36102 0.85678 0.14379 0.00000
O205 O 0.38176 0.89703 0.13483 0.00000
O206 O 0.35267 0.89527 0.32701 0.00000
O207 O 0.32093 0.89682 0.31517 0.00000
C208 C 0.27612 0.83251 0.00276 0.00000
C209 C 0.35423 0.93704 0.07611 0.00000
C210 C 0.38075 0.87704 0.14529 0.00000
O211 O 0.34158 0.92100 0.01063 0.00000
O212 O 0.36200 0.93337 0.15838 0.00000
O213 O 0.32379 0.87342 0.12782 0.00000
O214 O 0.34320 0.85846 0.93813 0.00000
O215 O 0.32510 0.88069 0.90141 0.00000
O216 O 0.27806 0.85342 0.00851 0.00000
O217 O 0.29088 0.82673 0.02585 0.00000
H218 H 0.31986 0.89188 0.25597 0.00000
C219 C 0.33218 0.88869 0.36884 0.00000
Zn220 Zn 0.45344 0.35347 0.34765 0.00000
Zn221 Zn 0.42298 0.30873 0.18498 0.00000
Zn222 Zn 0.48107 0.32718 0.23434 0.00000
C223 C 0.46676 0.33974 0.04928 0.00000
O224 O 0.50418 0.36100 0.31031 0.00000
O225 O 0.48468 0.38173 0.30137 0.00000
O226 O 0.45733 0.35263 0.49354 0.00000
O227 O 0.42403 0.32088 0.48171 0.00000
C228 C 0.44351 0.27609 0.16927 0.00000
C229 C 0.41712 0.35418 0.24265 0.00000
C230 C 0.50366 0.38073 0.31182 0.00000
O231 O 0.42050 0.34153 0.17718 0.00000
O232 O 0.42856 0.36195 0.32492 0.00000
O233 O 0.45029 0.32375 0.29435 0.00000
O234 O 0.48466 0.34317 0.10466 0.00000
O235 O 0.44433 0.32506 0.06794 0.00000
O236 O 0.42453 0.27802 0.17503 0.00000
O237 O 0.46405 0.29085 0.19237 0.00000
H238 H 0.42790 0.31981 0.42251 0.00000
C239 C 0.44341 0.33213 0.53537 0.00000
C240 C 0.11621 0.46947 0.13865 0.00000
C241 C 0.11094 0.44774 0.98763 0.00000
C242 C 0.11751 0.46866 0.93156 0.00000
C243 C 0.10667 0.42661 0.93969 0.00000
C244 C 0.11993 0.46812 0.82806 0.00000
C245 C 0.10929 0.42623 0.83584 0.00000
H246 H 0.10571 0.47566 0.11726 0.00000
H247 H 0.13269 0.48104 0.11755 0.00000
H248 H 0.12026 0.48287 0.96300 0.00000
H249 H 0.10201 0.41255 0.97688 0.00000
C250 C 0.11627 0.44738 0.78163 0.00000
O251 O 0.10863 0.44678 0.09071 0.00000
H252 H 0.12410 0.48201 0.79036 0.00000
H253 H 0.10641 0.41202 0.80361 0.00000
C254 C 0.64816 0.12107 0.30314 0.00000
C255 C 0.65544 0.10651 0.15107 0.00000
C256 C 0.65550 0.12547 0.09811 0.00000
C257 C 0.66085 0.09059 0.10183 0.00000
C258 C 0.66124 0.12832 0.99651 0.00000
C259 C 0.66677 0.09365 0.99990 0.00000
H260 H 0.63417 0.12155 0.27663 0.00000
H261 H 0.66252 0.13675 0.28997 0.00000
H262 H 0.65174 0.13614 0.13035 0.00000
H263 H 0.66055 0.07776 0.13682 0.00000
C264 C 0.66714 0.11291 0.94907 0.00000
O265 O 0.65047 0.10264 0.25233 0.00000
H266 H 0.66108 0.14084 0.96078 0.00000
H267 H 0.67039 0.08294 0.96688 0.00000
C268 C 0.65675 0.54403 0.19234 0.00000
C269 C 0.66682 0.53832 0.02748 0.00000
C270 C 0.64629 0.53817 0.98960 0.00000
C271 C 0.68322 0.53726 0.96219 0.00000
C272 C 0.64262 0.53722 0.88647 0.00000
C273 C 0.67953 0.53647 0.85869 0.00000
H274 H 0.64034 0.53024 0.18821 0.00000
H275 H 0.65636 0.55832 0.16889 0.00000
H276 H 0.63510 0.53872 0.03286 0.00000
H277 H 0.69679 0.53707 0.98740 0.00000
C278 C 0.65919 0.53679 0.82249 0.00000
O279 O 0.67215 0.53976 0.12848 0.00000
H280 H 0.62881 0.53690 0.86105 0.00000
H281 H 0.69054 0.53575 0.81482 0.00000
C282 C 0.12116 0.66431 0.35874 0.00000
C283 C 0.11788 0.66971 0.18496 0.00000
C284 C 0.12386 0.65190 0.16234 0.00000
C285 C 0.11148 0.68019 0.10858 0.00000
C286 C 0.12310 0.64467 0.06328 0.00000
C287 C 0.11058 0.67273 0.00936 0.00000
H288 H 0.13735 0.66644 0.35248 0.00000
H289 H 0.10948 0.64710 0.35042 0.00000
H290 H 0.12833 0.64489 0.21300 0.00000
H291 H 0.10774 0.69228 0.12343 0.00000
C292 C 0.11618 0.65466 0.98869 0.00000
O293 O 0.11765 0.67760 0.28124 0.00000
H294 H 0.12730 0.63293 0.04789 0.00000
H295 H 0.10629 0.67978 0.95803 0.00000
C296 C 0.88138 0.34056 0.48741 0.00000
C297 C 0.87091 0.33749 0.65928 0.00000
C298 C 0.89234 0.33790 0.68599 0.00000
C299 C 0.85564 0.33749 0.73332 0.00000
C300 C 0.89828 0.33856 0.78681 0.00000
C301 C 0.86177 0.33833 0.83440 0.00000
H302 H 0.88414 0.32684 0.49010 0.00000
H303 H 0.89667 0.35518 0.50285 0.00000
H304 H 0.90262 0.33774 0.63686 0.00000
H305 H 0.84119 0.33694 0.71565 0.00000
C306 C 0.88342 0.33918 0.85930 0.00000
O307 O 0.86386 0.33734 0.56121 0.00000
H308 H 0.91247 0.33862 0.80484 0.00000
H309 H 0.85150 0.33832 0.88416 0.00000
C310 C 0.54325 0.88608 0.02613 0.00000
C311 C 0.54007 0.87193 0.85948 0.00000
C312 C 0.53617 0.89038 0.82430 0.00000
C313 C 0.54219 0.85653 0.79197 0.00000
C314 C 0.53469 0.89326 0.72161 0.00000
C315 C 0.54085 0.85961 0.68892 0.00000
H316 H 0.52788 0.88590 0.02288 0.00000
H317 H 0.55597 0.90201 0.00405 0.00000
H318 H 0.53457 0.90070 0.86905 0.00000
H319 H 0.54451 0.84403 0.81537 0.00000
C320 C 0.53739 0.87837 0.65543 0.00000
O321 O 0.54230 0.86809 0.95987 0.00000
H322 H 0.53186 0.90543 0.69797 0.00000
H323 H 0.54226 0.84925 0.64355 0.00000
C324 C 0.34113 0.45782 0.69340 0.00000
C325 C 0.32965 0.45561 0.52314 0.00000
C326 C 0.35398 0.46783 0.49369 0.00000
C327 C 0.31152 0.44678 0.45112 0.00000
C328 C 0.35978 0.47079 0.39215 0.00000
C329 C 0.31746 0.44967 0.34928 0.00000
H330 H 0.35207 0.47530 0.69102 0.00000
H331 H 0.35040 0.44999 0.67531 0.00000
H332 H 0.36627 0.47395 0.54148 0.00000
H333 H 0.29527 0.43887 0.47066 0.00000
C334 C 0.34180 0.46150 0.32159 0.00000
O335 O 0.32225 0.45140 0.62206 0.00000
H336 H 0.37602 0.47913 0.37231 0.00000
H337 H 0.30528 0.44374 0.30088 0.00000
C338 C 0.44394 0.11365 0.51612 0.00000
C339 C 0.45734 0.10685 0.36007 0.00000
C340 C 0.45263 0.12376 0.31378 0.00000
C341 C 0.46815 0.09618 0.30588 0.00000
C342 C 0.45908 0.12990 0.21386 0.00000
C343 C 0.47474 0.10255 0.20578 0.00000
H344 H 0.42853 0.11079 0.48916 0.00000
H345 H 0.45565 0.13089 0.50907 0.00000
H346 H 0.44524 0.13089 0.34934 0.00000
H347 H 0.47106 0.08469 0.33634 0.00000
C348 C 0.47028 0.11974 0.16166 0.00000
O349 O 0.45203 0.10008 0.45935 0.00000
H350 H 0.45575 0.14102 0.18253 0.00000
H351 H 0.48199 0.09537 0.16935 0.00000
C352 C 0.54894 0.65718 0.11179 0.00000
C353 C 0.53208 0.65865 0.26823 0.00000
C354 C 0.54737 0.65226 0.31803 0.00000
C355 C 0.51706 0.66434 0.32300 0.00000
C356 C 0.54754 0.65190 0.42232 0.00000
C357 C 0.51743 0.66411 0.42769 0.00000
H358 H 0.54619 0.64089 0.12321 0.00000
H359 H 0.56495 0.66867 0.13785 0.00000
H360 H 0.55739 0.64826 0.28192 0.00000
H361 H 0.50664 0.66834 0.28986 0.00000
C362 C 0.53311 0.65812 0.47580 0.00000
O363 O 0.53111 0.65998 0.16516 0.00000
H364 H 0.55758 0.64742 0.45573 0.00000
H365 H 0.50733 0.66792 0.46449 0.00000
C366 C 0.87874 0.53970 0.64636 0.00000
C367 C 0.87237 0.53089 0.47287 0.00000
C368 C 0.88871 0.55512 0.44930 0.00000
C369 C 0.86224 0.51386 0.39683 0.00000
C370 C 0.89485 0.56187 0.34962 0.00000
C371 C 0.86860 0.52071 0.29694 0.00000
H372 H 0.87532 0.55297 0.64192 0.00000
H373 H 0.89607 0.54640 0.63538 0.00000
H374 H 0.89548 0.56670 0.49976 0.00000
H375 H 0.85112 0.49773 0.41234 0.00000
C376 C 0.88524 0.54485 0.27527 0.00000
O377 O 0.86566 0.52250 0.56974 0.00000
H378 H 0.90559 0.57808 0.33363 0.00000
H379 H 0.86178 0.50927 0.24583 0.00000
C380 C 0.34225 0.88341 0.81366 0.00000
C381 C 0.33449 0.87081 0.64404 0.00000
C382 C 0.34163 0.89445 0.61353 0.00000
C383 C 0.32864 0.85285 0.57283 0.00000
C384 C 0.34303 0.89980 0.51175 0.00000
C385 C 0.33024 0.85836 0.47074 0.00000
H386 H 0.33228 0.89103 0.81124 0.00000
H387 H 0.35871 0.89555 0.79469 0.00000
H388 H 0.34544 0.90659 0.66078 0.00000
H389 H 0.32360 0.83700 0.59308 0.00000
C390 C 0.33781 0.88212 0.44197 0.00000
O391 O 0.33310 0.86401 0.74325 0.00000
H392 H 0.34758 0.91553 0.49121 0.00000
H393 H 0.32630 0.84629 0.42288 0.00000
C394 C 0.44709 0.32879 0.61609 0.00000
C395 C 0.45047 0.34490 0.77924 0.00000
C396 C 0.46047 0.33116 0.81487 0.00000
C397 C 0.44878 0.36131 0.84229 0.00000
C398 C 0.46886 0.33428 0.91316 0.00000
C399 C 0.45739 0.36449 0.94069 0.00000
H400 H 0.43837 0.31204 0.63915 0.00000
H401 H 0.46438 0.33427 0.61810 0.00000
H402 H 0.46154 0.31999 0.77332 0.00000
H403 H 0.44185 0.37030 0.81897 0.00000
C404 C 0.46767 0.35093 0.97410 0.00000
O405 O 0.44218 0.34336 0.68229 0.00000
H406 H 0.47534 0.32496 0.93739 0.00000
H407 H 0.45624 0.37551 0.98308 0.00000
C408 C 0.12977 0.52891 0.49869 0.00000
C409 C 0.11715 0.55135 0.59947 0.00000
C410 C 0.13336 0.57285 0.55052 0.00000
C411 C 0.10133 0.55159 0.67026 0.00000
C412 C 0.13328 0.59428 0.57265 0.00000
C413 C 0.10122 0.57312 0.69167 0.00000
H414 H 0.14687 0.53957 0.51383 0.00000
H415 H 0.12590 0.53529 0.43978 0.00000
H416 H 0.14414 0.57289 0.50338 0.00000
H417 H 0.09069 0.53731 0.70384 0.00000
C418 C 0.11722 0.59424 0.64076 0.00000
O419 O 0.11561 0.52919 0.58064 0.00000
H420 H 0.14424 0.60870 0.54070 0.00000
H421 H 0.09060 0.57329 0.73929 0.00000
C422 C 0.52964 0.12955 0.81159 0.00000
C423 C 0.55284 0.12082 0.69730 0.00000
C424 C 0.57259 0.13066 0.76275 0.00000
C425 C 0.55402 0.10984 0.60954 0.00000
C426 C 0.59319 0.12912 0.73960 0.00000
C427 C 0.57469 0.10820 0.58703 0.00000
H428 H 0.54212 0.14653 0.81803 0.00000
H429 H 0.53266 0.12040 0.86225 0.00000
H430 H 0.57203 0.13820 0.82149 0.00000
H431 H 0.54096 0.10351 0.56522 0.00000
C432 C 0.59398 0.11774 0.65411 0.00000
O433 O 0.53151 0.12107 0.71531 0.00000
H434 H 0.60650 0.13588 0.78276 0.00000
H435 H 0.57549 0.10084 0.52803 0.00000
C436 C 0.60053 0.47077 0.47235 0.00000
C437 C 0.56657 0.44816 0.36611 0.00000
C438 C 0.55961 0.42712 0.42194 0.00000
C439 C 0.55189 0.44771 0.28848 0.00000
C440 C 0.53785 0.40597 0.39965 0.00000
C441 C 0.52998 0.42647 0.26689 0.00000
H442 H 0.60638 0.45934 0.46502 0.00000
H443 H 0.58947 0.46557 0.52905 0.00000
H444 H 0.56942 0.42720 0.47375 0.00000
H445 H 0.55665 0.46166 0.25040 0.00000
C446 C 0.52318 0.40585 0.32457 0.00000
O447 O 0.58757 0.47005 0.38440 0.00000
H448 H 0.53327 0.39184 0.43625 0.00000
H449 H 0.52013 0.42617 0.21468 0.00000
C450 C 0.87147 0.39866 0.12221 0.00000
C451 C 0.88730 0.43783 0.04979 0.00000
C452 C 0.86486 0.43660 0.06017 0.00000
C453 C 0.90710 0.45902 0.01452 0.00000
C454 C 0.86267 0.45679 0.03592 0.00000
C455 C 0.90484 0.47928 0.99094 0.00000
H456 H 0.85779 0.39122 0.07636 0.00000
H457 H 0.86653 0.40442 0.18004 0.00000
H458 H 0.85143 0.42241 0.08316 0.00000
H459 H 0.92203 0.45977 0.00646 0.00000
C460 C 0.88243 0.47781 0.00354 0.00000
O461 O 0.89123 0.41889 0.07409 0.00000
H462 H 0.84765 0.45593 0.04194 0.00000
H463 H 0.91814 0.49351 0.96719 0.00000
C464 C 0.47907 0.88388 0.28889 0.00000
C465 C 0.43986 0.87985 0.28446 0.00000
C466 C 0.44115 0.88246 0.18069 0.00000
C467 C 0.41862 0.87473 0.33376 0.00000
C468 C 0.42099 0.87964 0.12771 0.00000
C469 C 0.39838 0.87176 0.28010 0.00000
H470 H 0.48650 0.89898 0.25115 0.00000
H471 H 0.47338 0.87054 0.24144 0.00000
H472 H 0.45538 0.88605 0.14703 0.00000
H473 H 0.41782 0.87326 0.40314 0.00000
C474 C 0.39991 0.87400 0.17664 0.00000
O475 O 0.45878 0.88182 0.34268 0.00000
H476 H 0.42188 0.88160 0.05849 0.00000
H477 H 0.38411 0.86833 0.31324 0.00000
C478 C 0.40020 0.52968 0.97899 0.00000
C479 C 0.43191 0.55298 0.86390 0.00000
C480 C 0.44216 0.57256 0.93020 0.00000
C481 C 0.44379 0.55428 0.77517 0.00000
C482 C 0.46435 0.59311 0.90689 0.00000
C483 C 0.46614 0.57489 0.75249 0.00000
H484 H 0.39588 0.54225 0.98695 0.00000
H485 H 0.41248 0.53246 0.02881 0.00000
H486 H 0.43425 0.57192 0.98961 0.00000
H487 H 0.43684 0.54134 0.73030 0.00000
C488 C 0.47624 0.59400 0.82039 0.00000
O489 O 0.41026 0.53171 0.88196 0.00000
H490 H 0.47112 0.60629 0.95064 0.00000
H491 H 0.47411 0.57577 0.69283 0.00000
C492 C 0.25032 0.43528 0.13367 0.00000
C493 C 0.22678 0.45121 0.20310 0.00000
C494 C 0.21019 0.42847 0.24210 0.00000
C495 C 0.22418 0.47113 0.22476 0.00000
C496 C 0.19133 0.42609 0.30324 0.00000
C497 C 0.20531 0.46867 0.28674 0.00000
H498 H 0.23649 0.42213 0.09955 0.00000
H499 H 0.25133 0.42954 0.19991 0.00000
H500 H 0.21169 0.41497 0.22745 0.00000
H501 H 0.23508 0.48628 0.19786 0.00000
C502 C 0.18924 0.44594 0.32625 0.00000
O503 O 0.24632 0.45532 0.14362 0.00000
H504 H 0.18009 0.41087 0.32863 0.00000
H505 H 0.20355 0.48206 0.30126 0.00000
C506 C 0.74011 0.18757 0.46865 0.00000
C507 C 0.77823 0.20977 0.38675 0.00000
C508 C 0.77671 0.23093 0.39013 0.00000
C509 C 0.79912 0.21076 0.35005 0.00000
C510 C 0.79631 0.25286 0.35751 0.00000
C511 C 0.81881 0.23287 0.31805 0.00000
H512 H 0.73191 0.19263 0.42130 0.00000
H513 H 0.74643 0.19946 0.52242 0.00000
H514 H 0.76271 0.23041 0.41402 0.00000
H515 H 0.80005 0.19661 0.34668 0.00000
C516 C 0.81708 0.25379 0.32374 0.00000
O517 O 0.75988 0.18736 0.41951 0.00000
H518 H 0.79526 0.26697 0.35886 0.00000
H519 H 0.83284 0.23353 0.29334 0.00000
C520 C 0.81617 0.56565 0.82791 0.00000
C521 C 0.77558 0.55065 0.77312 0.00000
C522 C 0.78286 0.57120 0.71362 0.00000
C523 C 0.75164 0.53188 0.76977 0.00000
C524 C 0.76603 0.57251 0.65074 0.00000
C525 C 0.73486 0.53322 0.70599 0.00000
H526 H 0.81819 0.58123 0.84843 0.00000
H527 H 0.82112 0.56704 0.75830 0.00000
H528 H 0.79884 0.58396 0.71584 0.00000
H529 H 0.74669 0.51827 0.81029 0.00000
C530 C 0.74260 0.55366 0.64605 0.00000
O531 O 0.79117 0.54761 0.83599 0.00000
H532 H 0.77079 0.58631 0.61161 0.00000
H533 H 0.71877 0.52061 0.70379 0.00000
C534 C 0.18817 0.74864 0.79009 0.00000
C535 C 0.22227 0.76934 0.89750 0.00000
C536 C 0.22304 0.79135 0.87958 0.00000
C537 C 0.23806 0.76841 0.96657 0.00000
C538 C 0.23951 0.81211 0.93210 0.00000
C539 C 0.25444 0.78927 0.01958 0.00000
H540 H 0.19612 0.75977 0.73484 0.00000
H541 H 0.17977 0.75501 0.82979 0.00000
H542 H 0.21262 0.79218 0.83291 0.00000
H543 H 0.23776 0.75379 0.97778 0.00000
C544 C 0.25460 0.81091 0.00189 0.00000
O545 O 0.20618 0.74777 0.85041 0.00000
H546 H 0.24020 0.82688 0.91961 0.00000
H547 H 0.26506 0.78866 0.06595 0.00000
C548 C 0.56266 0.74441 0.62806 0.00000
C549 C 0.56546 0.78292 0.61036 0.00000
C550 C 0.55809 0.77789 0.51075 0.00000
C551 C 0.56891 0.80425 0.65368 0.00000
C552 C 0.55404 0.79426 0.45625 0.00000
C553 C 0.56464 0.82053 0.59880 0.00000
H554 H 0.57284 0.74679 0.57014 0.00000
H555 H 0.54589 0.73683 0.60528 0.00000
H556 H 0.55589 0.76371 0.48085 0.00000
H557 H 0.57410 0.80777 0.71983 0.00000
C558 C 0.55689 0.81495 0.50025 0.00000
O559 O 0.56940 0.76749 0.67054 0.00000
H560 H 0.54932 0.79104 0.38944 0.00000
H561 H 0.56697 0.83487 0.62790 0.00000
C562 C 0.44875 0.25882 0.15098 0.00000
C563 C 0.43684 0.22623 0.03648 0.00000
C564 C 0.45187 0.21916 0.08404 0.00000
C565 C 0.42190 0.21224 0.95896 0.00000
C566 C 0.45150 0.19796 0.05372 0.00000
C567 C 0.42148 0.19088 0.92930 0.00000
H568 H 0.46599 0.26515 0.13937 0.00000
H569 H 0.44374 0.24714 0.20541 0.00000
H570 H 0.46207 0.22852 0.13569 0.00000
H571 H 0.41207 0.21708 0.92636 0.00000
C572 C 0.43627 0.18394 0.97887 0.00000
O573 O 0.43566 0.24668 0.06309 0.00000
H574 H 0.46168 0.19332 0.08478 0.00000
H575 H 0.41145 0.18148 0.87716 0.00000
C576 C 0.04417 0.40509 0.35814 0.00000
C577 C 0.00183 0.39093 0.34942 0.00000
C578 C 0.99990 0.37726 0.26438 0.00000
C579 C 0.98116 0.38926 0.39208 0.00000
C580 C 0.97674 0.36190 0.22390 0.00000
C581 C 0.95816 0.37368 0.35153 0.00000
H582 H 0.04699 0.41065 0.28920 0.00000
H583 H 0.04045 0.38826 0.35871 0.00000
H584 H 0.01346 0.37838 0.23485 0.00000
H585 H 0.98260 0.39857 0.44818 0.00000
C586 C 0.95639 0.35991 0.26788 0.00000
O587 O 0.02379 0.40621 0.39573 0.00000
H588 H 0.97528 0.35293 0.16658 0.00000
H589 H 0.94427 0.37257 0.38017 0.00000
C590 C 0.64067 0.04428 0.52406 0.00000
C591 C 0.61022 0.00284 0.50593 0.00000
C592 C 0.62456 0.99990 0.43707 0.00000
C593 C 0.58831 0.98328 0.53690 0.00000
C594 C 0.61679 0.97578 0.40100 0.00000
C595 C 0.58069 0.95984 0.50095 0.00000
H596 H 0.64180 0.04735 0.45255 0.00000
H597 H 0.65220 0.03900 0.54102 0.00000
H598 H 0.63921 0.01218 0.41537 0.00000
H599 H 0.57859 0.98576 0.58198 0.00000
C600 C 0.59545 0.95649 0.43380 0.00000
O601 O 0.61675 0.02528 0.54718 0.00000
H602 H 0.62624 0.97330 0.35433 0.00000
H603 H 0.56596 0.94670 0.52172 0.00000
C604 C 0.63614 0.59737 0.55422 0.00000
C605 C 0.63076 0.62586 0.64953 0.00000
C606 C 0.60604 0.61388 0.62612 0.00000
C607 C 0.64014 0.64530 0.71550 0.00000
C608 C 0.59103 0.62145 0.67015 0.00000
C609 C 0.62495 0.65271 0.76001 0.00000
H610 H 0.62862 0.59959 0.49494 0.00000
H611 H 0.62341 0.58441 0.59379 0.00000
H612 H 0.59961 0.60093 0.58145 0.00000
H613 H 0.65669 0.65350 0.73033 0.00000
C614 C 0.60031 0.64025 0.73704 0.00000
O615 O 0.64686 0.61926 0.61105 0.00000
H616 H 0.57456 0.61361 0.65394 0.00000
H617 H 0.63126 0.66578 0.80430 0.00000
C618 C 0.96132 0.59949 0.91417 0.00000
C619 C 0.99378 0.62417 0.80429 0.00000
C620 C 0.00884 0.61711 0.85164 0.00000
C621 C 0.00208 0.63886 0.72016 0.00000
C622 C 0.03197 0.62471 0.81318 0.00000
C623 C 0.02525 0.64629 0.68149 0.00000
H624 H 0.97109 0.60659 0.97376 0.00000
H625 H 0.96301 0.58567 0.89462 0.00000
H626 H 0.00350 0.60739 0.90850 0.00000
H627 H 0.99215 0.64381 0.68913 0.00000
C628 C 0.03978 0.63870 0.72875 0.00000
O629 O 0.97041 0.61706 0.83601 0.00000
H630 H 0.04214 0.62020 0.84521 0.00000
H631 H 0.03083 0.65617 0.62498 0.00000
C632 C 0.35789 0.39721 0.05997 0.00000
C633 C 0.37288 0.38100 0.18250 0.00000
C634 C 0.38545 0.37599 0.10951 0.00000
C635 C 0.37556 0.37694 0.28232 0.00000
C636 C 0.40075 0.36718 0.13791 0.00000
C637 C 0.39108 0.36825 0.31044 0.00000
H638 H 0.35157 0.38284 0.01792 0.00000
H639 H 0.37457 0.40828 0.03966 0.00000
H640 H 0.38365 0.37851 0.04231 0.00000
H641 H 0.36697 0.38001 0.33105 0.00000
C642 C 0.40376 0.36379 0.23668 0.00000
O643 O 0.35775 0.39026 0.16126 0.00000
H644 H 0.40900 0.36361 0.08922 0.00000
H645 H 0.39287 0.36550 0.37751 0.00000
C646 C 0.39798 0.04306 0.93162 0.00000
C647 C 0.39354 0.00659 0.00010 0.00000
C648 C 0.36830 0.99533 0.99229 0.00000
C649 C 0.40409 0.99323 0.03224 0.00000
C650 C 0.35399 0.97072 0.01569 0.00000
C651 C 0.38965 0.96848 0.05497 0.00000
H652 H 0.38682 0.04378 0.97929 0.00000
H653 H 0.38857 0.03378 0.87404 0.00000
H654 H 0.36104 0.00418 0.97150 0.00000
H655 H 0.42092 0.00010 0.03867 0.00000
C656 C 0.36458 0.95753 0.04483 0.00000
O657 O 0.40913 0.03076 0.97653 0.00000
H658 H 0.33712 0.96322 0.01132 0.00000
H659 H 0.39674 0.95951 0.07653 0.00000
loop_
_geom_bond_atom_site_label_1
_geom_bond_atom_site_label_2
_geom_bond_distance
_geom_bond_site_symmetry_2
_ccdc_geom_bond_type
Zn0 O5 1.991 . S
Zn0 O6 1.968 . S
Zn0 O12 1.928 . S
Zn0 O13 1.929 . S
Zn1 O11 2.165 . S
Zn1 O13 2.095 . S
Zn1 O15 1.986 . S
Zn1 O16 2.003 . S
Zn2 O4 2.152 . S
Zn2 O13 2.019 . S
Zn2 O14 1.962 . S
Zn2 O17 2.073 . S
C3 O14 1.279 . A
C3 O15 1.276 . A
O4 C10 1.268 . A
O5 C10 1.245 . A
O6 C19 1.278 . A
O7 H18 0.840 . S
O7 C19 1.287 . A
C8 O16 1.272 . A
C8 O17 1.203 . A
C9 O11 1.275 . A
C9 O12 1.272 . A
Zn20 O25 1.991 . S
Zn20 O26 1.968 . S
Zn20 O32 1.928 . S
Zn20 O33 1.929 . S
Zn21 O31 2.165 . S
Zn21 O33 2.095 . S
Zn21 O35 1.986 . S
Zn21 O36 2.003 . S
Zn22 O24 2.152 . S
Zn22 O33 2.019 . S
Zn22 O34 1.962 . S
Zn22 O37 2.073 . S
C23 O34 1.279 . A
C23 O35 1.276 . A
O24 C30 1.268 . A
O25 C30 1.245 . A
O26 C39 1.278 . A
O27 H38 0.840 . S
O27 C39 1.287 . A
C28 O36 1.272 . A
C28 O37 1.203 . A
C29 O31 1.275 . A
C29 O32 1.272 . A
Zn40 O45 1.991 . S
Zn40 O46 1.968 . S
Zn40 O52 1.928 . S
Zn40 O53 1.929 . S
Zn41 O51 2.165 . S
Zn41 O53 2.095 . S
Zn41 O55 1.986 . S
Zn41 O56 2.003 . S
Zn42 O44 2.152 . S
Zn42 O53 2.019 . S
Zn42 O54 1.962 . S
Zn42 O57 2.073 . S
C43 O54 1.279 . A
C43 O55 1.276 . A
O44 C50 1.268 . A
O45 C50 1.245 . A
O46 C59 1.278 . A
O47 H58 0.840 . S
O47 C59 1.287 . A
C48 O56 1.272 . A
C48 O57 1.203 . A
C49 O51 1.275 . A
C49 O52 1.272 . A
Zn60 O65 1.991 . S
Zn60 O66 1.968 . S
Zn60 O72 1.928 . S
Zn60 O73 1.929 . S
Zn61 O71 2.165 . S
Zn61 O73 2.095 . S
Zn61 O75 1.986 . S
Zn61 O76 2.003 . S
Zn62 O64 2.152 . S
Zn62 O73 2.019 . S
Zn62 O74 1.962 . S
Zn62 O77 2.073 . S
C63 O74 1.279 . A
C63 O75 1.276 . A
O64 C70 1.268 . A
O65 C70 1.245 . A
O66 C79 1.278 . A
O67 H78 0.840 . S
O67 C79 1.287 . A
C68 O76 1.272 . A
C68 O77 1.203 . A
C69 O71 1.275 . A
C69 O72 1.272 . A
Zn80 O85 1.991 . S
Zn80 O86 1.968 1_554 S
Zn80 O92 1.928 . S
Zn80 O93 1.929 . S
Zn81 O91 2.165 . S
Zn81 O93 2.095 . S
Zn81 O95 1.986 . S
Zn81 O96 2.003 . S
Zn82 O84 2.152 . S
Zn82 O93 2.019 . S
Zn82 O94 1.962 . S
Zn82 O97 2.073 . S
C83 O94 1.279 . A
C83 O95 1.276 . A
O84 C90 1.268 . A
O85 C90 1.245 . A
O86 C99 1.278 . A
O87 H98 0.840 1_556 S
O87 C99 1.287 . A
C88 O96 1.272 . A
C88 O97 1.203 . A
C89 O91 1.275 . A
C89 O92 1.272 . A
Zn100 O105 1.991 . S
Zn100 O106 1.968 . S
Zn100 O112 1.928 . S
Zn100 O113 1.929 . S
Zn101 O111 2.165 . S
Zn101 O113 2.095 . S
Zn101 O115 1.986 . S
Zn101 O116 2.003 . S
Zn102 O104 2.152 . S
Zn102 O113 2.019 . S
Zn102 O114 1.962 . S
Zn102 O117 2.073 . S
C103 O114 1.279 . A
C103 O115 1.276 . A
O104 C110 1.268 . A
O105 C110 1.245 . A
O106 C119 1.278 . A
O107 H118 0.840 . S
O107 C119 1.287 . A
C108 O116 1.272 . A
C108 O117 1.203 . A
C109 O111 1.275 . A
C109 O112 1.272 . A
Zn120 O125 1.993 . S
Zn120 O126 1.968 . S
Zn120 O132 1.928 . S
Zn120 O133 1.929 1_556 S
Zn121 O131 2.165 . S
Zn121 O133 2.095 . S
Zn121 O135 1.986 . S
Zn121 O136 2.003 . S
Zn122 O124 2.152 1_554 S
Zn122 O133 2.019 . S
Zn122 O134 1.962 . S
Zn122 O137 2.073 . S
C123 O134 1.279 . A
C123 O135 1.276 . A
O124 C130 1.268 . A
O125 C130 1.245 . A
O126 C139 1.278 . A
O127 H138 0.840 . S
O127 C139 1.287 . A
C128 O136 1.272 . A
C128 O137 1.203 . A
C129 O131 1.275 . A
C129 O132 1.272 1_554 A
Zn140 O145 1.991 . S
Zn140 O146 1.968 . S
Zn140 O152 1.928 . S
Zn140 O153 1.929 . S
Zn141 O151 2.165 . S
Zn141 O153 2.095 . S
Zn141 O155 1.986 1_556 S
Zn141 O156 2.003 . S
Zn142 O144 2.152 . S
Zn142 O153 2.019 . S
Zn142 O154 1.962 1_556 S
Zn142 O157 2.073 . S
C143 O154 1.279 . A
C143 O155 1.276 . A
O144 C150 1.268 . A
O145 C150 1.245 . A
O146 C159 1.278 . A
O147 H158 0.840 . S
O147 C159 1.287 . A
C148 O156 1.272 . A
C148 O157 1.203 . A
C149 O151 1.275 . A
C149 O152 1.272 . A
Zn160 O165 1.991 . S
Zn160 O166 1.968 . S
Zn160 O172 1.928 . S
Zn160 O173 1.929 . S
Zn161 O171 2.165 . S
Zn161 O173 2.095 . S
Zn161 O175 1.986 . S
Zn161 O176 2.003 . S
Zn162 O164 2.152 . S
Zn162 O173 2.019 . S
Zn162 O174 1.962 . S
Zn162 O177 2.073 . S
C163 O174 1.279 . A
C163 O175 1.276 . A
O164 C170 1.268 . A
O165 C170 1.245 . A
O166 C179 1.278 1_556 A
O167 H178 0.840 . S
O167 C179 1.287 1_556 A
C168 O176 1.272 . A
C168 O177 1.203 . A
C169 O171 1.275 . A
C169 O172 1.272 . A
Zn180 O185 1.991 1_554 S
Zn180 O186 1.968 . S
Zn180 O192 1.928 1_554 S
Zn180 O193 1.929 1_554 S
Zn181 O191 2.165 . S
Zn181 O193 2.095 . S
Zn181 O195 1.986 . S
Zn181 O196 2.003 . S
Zn182 O184 2.152 . S
Zn182 O193 2.019 . S
Zn182 O194 1.962 . S
Zn182 O197 2.073 . S
C183 O194 1.279 . A
C183 O195 1.276 . A
O184 C190 1.268 . A
O185 C190 1.245 . A
O186 C199 1.278 . A
O187 H198 0.840 . S
O187 C199 1.287 . A
C188 O196 1.272 . A
C188 O197 1.203 . A
C189 O191 1.275 . A
C189 O192 1.272 . A
Zn200 O205 1.991 . S
Zn200 O206 1.968 . S
Zn200 O212 1.928 . S
Zn200 O213 1.929 . S
Zn201 O211 2.165 . S
Zn201 O213 2.095 . S
Zn201 O215 1.986 1_554 S
Zn201 O216 2.003 . S
Zn202 O204 2.152 . S
Zn202 O213 2.019 . S
Zn202 O214 1.962 1_554 S
Zn202 O217 2.073 . S
C203 O214 1.279 . A
C203 O215 1.276 . A
O204 C210 1.268 . A
O205 C210 1.245 . A
O206 C219 1.278 . A
O207 H218 0.840 . S
O207 C219 1.287 . A
C208 O216 1.272 . A
C208 O217 1.203 . A
C209 O211 1.275 . A
C209 O212 1.272 . A
Zn220 O225 1.991 . S
Zn220 O226 1.968 . S
Zn220 O232 1.928 . S
Zn220 O233 1.929 . S
Zn221 O231 2.165 . S
Zn221 O233 2.095 . S
Zn221 O235 1.986 . S
Zn221 O236 2.003 . S
Zn222 O224 2.152 . S
Zn222 O233 2.019 . S
Zn222 O234 1.962 . S
Zn222 O237 2.073 . S
C223 O234 1.279 . A
C223 O235 1.276 . A
O224 C230 1.268 . A
O225 C230 1.245 . A
O226 C239 1.278 . A
O227 H238 0.840 . S
O227 C239 1.287 . A
C228 O236 1.272 . A
C228 O237 1.203 . A
C229 O231 1.275 . A
C229 O232 1.272 . A
C240 H246 0.970 . S
C240 H247 0.971 . S
C240 O251 1.421 . S
C241 C242 1.393 . A
C241 C243 1.384 . A
C241 O251 1.382 1_556 S
C242 C244 1.393 . A
C242 H248 0.929 . S
C243 C245 1.398 . A
C243 H249 0.930 . S
C244 C250 1.365 . A
C244 H252 0.930 . S
C245 C250 1.387 . A
C245 H253 0.930 . S
C254 H260 0.970 . S
C254 H261 0.971 . S
C254 O265 1.421 . S
C255 C256 1.393 . A
C255 C257 1.384 . A
C255 O265 1.382 . S
C256 C258 1.393 1_554 A
C256 H262 0.929 . S
C257 C259 1.399 1_554 A
C257 H263 0.930 . S
C258 C264 1.365 . A
C258 H266 0.930 . S
C259 C264 1.387 . A
C259 H267 0.930 . S
C268 H274 0.970 . S
C268 H275 0.971 . S
C268 O279 1.421 . S
C269 C270 1.393 1_554 A
C269 C271 1.384 1_554 A
C269 O279 1.382 . S
C270 C272 1.393 . A
C270 H276 0.929 1_556 S
C271 C273 1.398 . A
C271 H277 0.930 . S
C272 C278 1.365 . A
C272 H280 0.930 . S
C273 C278 1.387 . A
C273 H281 0.930 . S
C282 H288 0.970 . S
C282 H289 0.971 . S
C282 O293 1.421 . S
C283 C284 1.393 . A
C283 C285 1.384 . A
C283 O293 1.382 . S
C284 C286 1.393 . A
C284 H290 0.929 . S
C285 C287 1.398 . A
C285 H291 0.930 . S
C286 C292 1.365 1_554 A
C286 H294 0.930 . S
C287 C292 1.387 1_554 A
C287 H295 0.930 1_554 S
C296 H302 0.970 . S
C296 H303 0.971 . S
C296 O307 1.421 . S
C297 C298 1.393 . A
C297 C299 1.384 . A
C297 O307 1.382 . S
C298 C300 1.393 . A
C298 H304 0.929 . S
C299 C301 1.398 . A
C299 H305 0.930 . S
C300 C306 1.365 . A
C300 H308 0.930 . S
C301 C306 1.387 . A
C301 H309 0.930 . S
C310 H316 0.970 . S
C310 H317 0.971 . S
C310 O321 1.421 1_554 S
C311 C312 1.393 . A
C311 C313 1.384 . A
C311 O321 1.382 . S
C312 C314 1.393 . A
C312 H318 0.929 . S
C313 C315 1.398 . A
C313 H319 0.930 . S
C314 C320 1.365 . A
C314 H322 0.930 . S
C315 C320 1.387 . A
C315 H323 0.930 . S
C324 H330 0.970 . S
C324 H331 0.971 . S
C324 O335 1.421 . S
C325 C326 1.393 . A
C325 C327 1.384 . A
C325 O335 1.382 . S
C326 C328 1.393 . A
C326 H332 0.929 . S
C327 C329 1.398 . A
C327 H333 0.930 . S
C328 C334 1.365 . A
C328 H336 0.930 . S
C329 C334 1.387 . A
C329 H337 0.930 . S
C338 H344 0.970 . S
C338 H345 0.971 . S
C338 O349 1.421 . S
C339 C340 1.393 . A
C339 C341 1.384 . A
C339 O349 1.382 . S
C340 C342 1.393 . A
C340 H346 0.929 . S
C341 C343 1.398 . A
C341 H347 0.930 . S
C342 C348 1.365 . A
C342 H350 0.930 . S
C343 C348 1.387 . A
C343 H351 0.930 . S
C352 H358 0.970 . S
C352 H359 0.971 . S
C352 O363 1.421 . S
C353 C354 1.393 . A
C353 C355 1.384 . A
C353 O363 1.382 . S
C354 C356 1.393 . A
C354 H360 0.929 . S
C355 C357 1.398 . A
C355 H361 0.930 . S
C356 C362 1.365 . A
C356 H364 0.930 . S
C357 C362 1.387 . A
C357 H365 0.930 . S
C366 H372 0.970 . S
C366 H373 0.971 . S
C366 O377 1.421 . S
C367 C368 1.393 . A
C367 C369 1.384 . A
C367 O377 1.382 . S
C368 C370 1.393 . A
C368 H374 0.929 . S
C369 C371 1.398 . A
C369 H375 0.930 . S
C370 C376 1.365 . A
C370 H378 0.930 . S
C371 C376 1.387 . A
C371 H379 0.930 . S
C380 H386 0.970 . S
C380 H387 0.971 . S
C380 O391 1.421 . S
C381 C382 1.393 . A
C381 C383 1.384 . A
C381 O391 1.382 . S
C382 C384 1.393 . A
C382 H388 0.929 . S
C383 C385 1.398 . A
C383 H389 0.930 . S
C384 C390 1.365 . A
C384 H392 0.930 . S
C385 C390 1.387 . A
C385 H393 0.930 . S
C394 H400 0.970 . S
C394 H401 0.971 . S
C394 O405 1.421 . S
C395 C396 1.393 . A
C395 C397 1.384 . A
C395 O405 1.382 . S
C396 C398 1.393 . A
C396 H402 0.929 . S
C397 C399 1.398 . A
C397 H403 0.930 . S
C398 C404 1.365 . A
C398 H406 0.930 . S
C399 C404 1.387 . A
C399 H407 0.930 . S
C408 H414 0.970 . S
C408 H415 0.971 . S
C408 O419 1.421 . S
C409 C410 1.393 . A
C409 C411 1.384 . A
C409 O419 1.382 . S
C410 C412 1.393 . A
C410 H416 0.929 . S
C411 C413 1.398 . A
C411 H417 0.930 . S
C412 C418 1.365 . A
C412 H420 0.930 . S
C413 C418 1.387 . A
C413 H421 0.930 . S
C422 H428 0.970 . S
C422 H429 0.971 . S
C422 O433 1.421 . S
C423 C424 1.393 . A
C423 C425 1.384 . A
C423 O433 1.382 . S
C424 C426 1.393 . A
C424 H430 0.929 . S
C425 C427 1.398 . A
C425 H431 0.930 . S
C426 C432 1.365 . A
C426 H434 0.930 . S
C427 C432 1.387 . A
C427 H435 0.930 . S
C436 H442 0.970 . S
C436 H443 0.971 . S
C436 O447 1.421 . S
C437 C438 1.393 . A
C437 C439 1.384 . A
C437 O447 1.382 . S
C438 C440 1.393 . A
C438 H444 0.929 . S
C439 C441 1.398 . A
C439 H445 0.930 . S
C440 C446 1.365 . A
C440 H448 0.930 . S
C441 C446 1.387 . A
C441 H449 0.930 . S
C450 H456 0.970 . S
C450 H457 0.971 . S
C450 O461 1.421 . S
C451 C452 1.393 . A
C451 C453 1.384 . A
C451 O461 1.382 . S
C452 C454 1.393 . A
C452 H458 0.929 . S
C453 C455 1.398 1_554 A
C453 H459 0.930 . S
C454 C460 1.365 . A
C454 H462 0.930 . S
C455 C460 1.387 1_556 A
C455 H463 0.930 . S
C464 H470 0.970 . S
C464 H471 0.971 . S
C464 O475 1.421 . S
C465 C466 1.393 . A
C465 C467 1.384 . A
C465 O475 1.382 . S
C466 C468 1.393 . A
C466 H472 0.929 . S
C467 C469 1.398 . A
C467 H473 0.930 . S
C468 C474 1.365 . A
C468 H476 0.930 . S
C469 C474 1.387 . A
C469 H477 0.930 . S
C478 H484 0.970 . S
C478 H485 0.971 1_556 S
C478 O489 1.421 . S
C479 C480 1.393 . A
C479 C481 1.384 . A
C479 O489 1.382 . S
C480 C482 1.393 . A
C480 H486 0.929 . S
C481 C483 1.398 . A
C481 H487 0.930 . S
C482 C488 1.365 . A
C482 H490 0.930 . S
C483 C488 1.387 . A
C483 H491 0.930 . S
C492 H498 0.970 . S
C492 H499 0.971 . S
C492 O503 1.421 . S
C493 C494 1.393 . A
C493 C495 1.384 . A
C493 O503 1.382 . S
C494 C496 1.393 . A
C494 H500 0.929 . S
C495 C497 1.398 . A
C495 H501 0.930 . S
C496 C502 1.365 . A
C496 H504 0.930 . S
C497 C502 1.387 . A
C497 H505 0.930 . S
C506 H512 0.970 . S
C506 H513 0.971 . S
C506 O517 1.421 . S
C507 C508 1.393 . A
C507 C509 1.384 . A
C507 O517 1.382 . S
C508 C510 1.393 . A
C508 H514 0.929 . S
C509 C511 1.398 . A
C509 H515 0.930 . S
C510 C516 1.365 . A
C510 H518 0.930 . S
C511 C516 1.387 . A
C511 H519 0.930 . S
C520 H526 0.970 . S
C520 H527 0.971 . S
C520 O531 1.421 . S
C521 C522 1.393 . A
C521 C523 1.384 . A
C521 O531 1.382 . S
C522 C524 1.393 . A
C522 H528 0.929 . S
C523 C525 1.398 . A
C523 H529 0.930 . S
C524 C530 1.365 . A
C524 H532 0.930 . S
C525 C530 1.387 . A
C525 H533 0.930 . S
C534 H540 0.970 . S
C534 H541 0.971 . S
C534 O545 1.421 . S
C535 C536 1.393 . A
C535 C537 1.384 . A
C535 O545 1.382 . S
C536 C538 1.393 . A
C536 H542 0.929 . S
C537 C539 1.398 1_556 A
C537 H543 0.930 . S
C538 C544 1.365 1_556 A
C538 H546 0.930 . S
C539 C544 1.387 . A
C539 H547 0.930 . S
C548 H554 0.970 . S
C548 H555 0.971 . S
C548 O559 1.421 . S
C549 C550 1.393 . A
C549 C551 1.384 . A
C549 O559 1.382 . S
C550 C552 1.393 . A
C550 H556 0.929 . S
C551 C553 1.398 . A
C551 H557 0.930 . S
C552 C558 1.365 . A
C552 H560 0.930 . S
C553 C558 1.387 . A
C553 H561 0.930 . S
C562 H568 0.970 . S
C562 H569 0.971 . S
C562 O573 1.421 . S
C563 C564 1.393 . A
C563 C565 1.384 1_554 A
C563 O573 1.382 . S
C564 C566 1.393 . A
C564 H570 0.929 . S
C565 C567 1.398 . A
C565 H571 0.930 . S
C566 C572 1.365 1_554 A
C566 H574 0.930 . S
C567 C572 1.387 . A
C567 H575 0.930 . S
C576 H582 0.970 . S
C576 H583 0.971 . S
C576 O587 1.421 . S
C577 C578 1.396 1_455 A
C577 C579 1.384 1_455 A
C577 O587 1.382 . S
C578 C580 1.402 . A
C578 H584 0.916 1_655 S
C579 C581 1.398 . A
C579 H585 0.930 . S
C580 C586 1.365 . A
C580 H588 0.930 . S
C581 C586 1.387 . A
C581 H589 0.930 . S
C590 H596 0.970 . S
C590 H597 0.971 . S
C590 O601 1.421 . S
C591 C592 1.370 1_545 A
C591 C593 1.384 1_545 A
C591 O601 1.382 . S
C592 C594 1.436 . A
C592 H598 0.911 1_565 S
C593 C595 1.398 . A
C593 H599 0.930 . S
C594 C600 1.365 . A
C594 H602 0.930 . S
C595 C600 1.387 . A
C595 H603 0.930 . S
C604 H610 0.970 . S
C604 H611 0.971 . S
C604 O615 1.421 . S
C605 C606 1.393 . A
C605 C607 1.384 . A
C605 O615 1.382 . S
C606 C608 1.393 . A
C606 H612 0.929 . S
C607 C609 1.398 . A
C607 H613 0.930 . S
C608 C614 1.365 . A
C608 H616 0.930 . S
C609 C614 1.387 . A
C609 H617 0.930 . S
C618 H624 0.970 . S
C618 H625 0.971 . S
C618 O629 1.421 . S
C619 C620 1.393 1_655 A
C619 C621 1.384 1_655 A
C619 O629 1.382 . S
C620 C622 1.393 . A
C620 H626 0.929 . S
C621 C623 1.398 . A
C621 H627 0.930 1_455 S
C622 C628 1.365 . A
C622 H630 0.930 . S
C623 C628 1.387 . A
C623 H631 0.930 . S
C632 H638 0.970 . S
C632 H639 0.971 . S
C632 O643 1.421 . S
C633 C634 1.393 . A
C633 C635 1.384 . A
C633 O643 1.382 . S
C634 C636 1.393 . A
C634 H640 0.929 . S
C635 C637 1.398 . A
C635 H641 0.930 . S
C636 C642 1.365 . A
C636 H644 0.930 . S
C637 C642 1.387 . A
C637 H645 0.930 . S
C646 H652 0.970 . S
C646 H653 0.971 . S
C646 O657 1.421 . S
C647 C648 1.393 1_544 A
C647 C649 1.385 1_545 A
C647 O657 1.382 1_554 S
C648 C650 1.393 1_556 A
C648 H654 0.929 1_565 S
C649 C651 1.398 . A
C649 H655 0.933 1_565 S
C650 C656 1.365 . A
C650 H658 0.930 . S
C651 C656 1.387 . A
C651 H659 0.930 . S
C240 C3 1.301 . S
C250 C19 1.099 . S
C254 C23 1.252 . S
C264 C39 1.080 . S
C268 C59 1.235 . S
C278 C43 0.984 . S
C282 C79 1.242 . S
C292 C63 1.113 . S
C296 C83 1.055 . S
C306 C99 1.185 . S
C310 C119 1.242 . S
C320 C103 0.993 . S
C324 C139 1.252 . S
C334 C123 1.022 . S
C338 C159 1.112 . S
C348 C143 1.191 . S
C352 C179 1.186 . S
C362 C163 0.991 . S
C366 C183 1.009 . S
C376 C199 1.180 . S
C380 C203 1.101 . S
C390 C219 1.185 . S
C394 C239 1.145 . S
C404 C223 1.214 1_556 S
C408 C10 1.461 . S
C418 C70 1.451 . S
C422 C150 1.490 . S
C432 C30 1.469 . S
C436 C50 1.472 . S
C446 C230 1.458 . S
C450 C90 1.419 . S
C460 C190 1.419 1_554 S
C464 C110 1.436 . S
C474 C210 1.387 . S
C478 C130 1.493 . S
C488 C170 1.471 . S
C492 C128 1.446 . S
C502 C8 1.321 . S
C506 C28 1.256 . S
C516 C88 1.302 . S
C520 C188 1.427 . S
C530 C48 1.299 . S
C534 C68 1.463 . S
C544 C208 1.367 . S
C548 C168 1.279 . S
C558 C108 1.226 . S
C562 C228 1.317 . S
C572 C148 1.351 . S
C576 C9 1.248 . S
C586 C89 1.234 . S
C590 C29 1.267 . S
C600 C109 1.219 . S
C604 C49 1.337 . S
C614 C169 1.321 . S
C618 C189 1.362 . S
C628 C69 1.305 . S
C632 C129 1.394 . S
C642 C229 1.270 . S
C646 C149 1.347 . S
C656 C209 1.200 . S
