# Generated by pormake.
# Topology acs-f, (3)-cn, num edge types: 1
# Building blocks:
#     Node 0, Type 0, BuildingBlock: N158, # of connection points: 4
#     Node 1, Type 0, BuildingBlock: N158, # of connection points: 4
#     Node 2, Type 0, BuildingBlock: N158, # of connection points: 4
#     Node 3, Type 0, BuildingBlock: N158, # of connection points: 4
#     Node 4, Type 0, BuildingBlock: N158, # of connection points: 4
#     Node 5, Type 0, BuildingBlock: N158, # of connection points: 4
#     Node 6, Type 0, BuildingBlock: N158, # of connection points: 4
#     Node 7, Type 0, BuildingBlock: N158, # of connection points: 4
#     Node 8, Type 0, BuildingBlock: N158, # of connection points: 4
#     Node 9, Type 0, BuildingBlock: N158, # of connection points: 4
#     Node 10, Type 0, BuildingBlock: N158, # of connection points: 4
#     Node 11, Type 0, BuildingBlock: N158, # of connection points: 4
#     Edge 12, Type (0, 0), BuildingBlock: E105, # of connection points: 2
#     Edge 13, Type (0, 0), BuildingBlock: E105, # of connection points: 2
#     Edge 14, Type (0, 0), BuildingBlock: E105, # of connection points: 2
#     Edge 15, Type (0, 0), BuildingBlock: E105, # of connection points: 2
#     Edge 16, Type (0, 0), BuildingBlock: E105, # of connection points: 2
#     Edge 17, Type (0, 0), BuildingBlock: E105, # of connection points: 2
#     Edge 18, Type (0, 0), BuildingBlock: E105, # of connection points: 2
#     Edge 19, Type (0, 0), BuildingBlock: E105, # of connection points: 2
#     Edge 20, Type (0, 0), BuildingBlock: E105, # of connection points: 2
#     Edge 21, Type (0, 0), BuildingBlock: E105, # of connection points: 2
#     Edge 22, Type (0, 0), BuildingBlock: E105, # of connection points: 2
#     Edge 23, Type (0, 0), BuildingBlock: E105, # of connection points: 2
#     Edge 24, Type (0, 0), BuildingBlock: E105, # of connection points: 2
#     Edge 25, Type (0, 0), BuildingBlock: E105, # of connection points: 2
#     Edge 26, Type (0, 0), BuildingBlock: E105, # of connection points: 2
#     Edge 27, Type (0, 0), BuildingBlock: E105, # of connection points: 2
#     Edge 28, Type (0, 0), BuildingBlock: E105, # of connection points: 2
#     Edge 29, Type (0, 0), BuildingBlock: E105, # of connection points: 2
# Relax obj value: 0.026
# Max RMSD: 0.263
# Mean RMSD: 0.263
data_acs-f+N158+E105
_symmetry_space_group_name_H-M    P1
_symmetry_Int_Tables_number       1
_symmetry_cell_setting            triclinic
loop_
_symmetry_equiv_pos_as_xyz
'x, y, z'
_cell_length_a     42.371
_cell_length_b     42.370
_cell_length_c     54.535
_cell_angle_alpha  90.017
_cell_angle_beta   90.007
_cell_angle_gamma  120.067
loop_
_atom_site_label
_atom_site_type_symbol
_atom_site_fract_x
_atom_site_fract_y
_atom_site_fract_z
_atom_type_partial_charge
C0 C 0.95015 0.36685 0.63346 0.00000
C1 C 0.91587 0.36144 0.62803 0.00000
C2 C 0.88854 0.32702 0.61917 0.00000
C3 C 0.89794 0.29971 0.61740 0.00000
C4 C 0.93295 0.30780 0.62358 0.00000
Ni5 Ni 0.01267 0.34743 0.63577 0.00000
C6 C 0.09113 0.42919 0.58599 0.00000
C7 C 0.07114 0.42955 0.56572 0.00000
C8 C 0.03285 0.41013 0.56747 0.00000
C9 C 0.01666 0.38965 0.58839 0.00000
C10 C 0.07263 0.40787 0.60620 0.00000
C11 C 0.03215 0.41898 0.66285 0.00000
C12 C 0.03994 0.44260 0.68262 0.00000
C13 C 0.04944 0.43366 0.70534 0.00000
C14 C 0.05174 0.40145 0.70594 0.00000
C15 C 0.04326 0.37989 0.68541 0.00000
C16 C 0.96915 0.30764 0.68080 0.00000
C17 C 0.95499 0.28219 0.69950 0.00000
C18 C 0.96170 0.25271 0.69969 0.00000
C19 C 0.98461 0.25201 0.68125 0.00000
C20 C 0.99778 0.27908 0.66341 0.00000
H21 H 0.96771 0.38971 0.63912 0.00000
H22 H 0.91081 0.38025 0.63015 0.00000
H23 H 0.88087 0.27640 0.61214 0.00000
N24 N 0.95974 0.34087 0.63097 0.00000
H25 H 0.93836 0.28912 0.62256 0.00000
N26 N 0.03566 0.38743 0.60772 0.00000
N27 N 0.03251 0.38735 0.66358 0.00000
N28 N 0.99032 0.30654 0.66262 0.00000
H29 H 0.08631 0.40754 0.61940 0.00000
H30 H 0.11646 0.44304 0.58598 0.00000
H31 H 0.01864 0.41098 0.55478 0.00000
H32 H 0.99131 0.37674 0.58920 0.00000
H33 H 0.02624 0.42551 0.64802 0.00000
H34 H 0.03885 0.46389 0.68089 0.00000
H35 H 0.05898 0.39488 0.72021 0.00000
H36 H 0.04492 0.35887 0.68646 0.00000
H37 H 0.96382 0.32643 0.68072 0.00000
H38 H 0.94111 0.28446 0.71185 0.00000
H39 H 0.99083 0.23381 0.68102 0.00000
H40 H 0.01268 0.27825 0.65120 0.00000
C41 C 0.63326 0.58331 0.63350 0.00000
C42 C 0.63861 0.55442 0.62805 0.00000
C43 C 0.67301 0.56153 0.61920 0.00000
C44 C 0.70036 0.59827 0.61744 0.00000
C45 C 0.69234 0.62522 0.62364 0.00000
Ni46 Ni 0.65282 0.66533 0.63586 0.00000
C47 C 0.57111 0.66204 0.58607 0.00000
C48 C 0.57069 0.64168 0.56579 0.00000
C49 C 0.59007 0.62280 0.56754 0.00000
C50 C 0.61054 0.62708 0.58845 0.00000
C51 C 0.59242 0.66486 0.60629 0.00000
C52 C 0.58126 0.61320 0.66290 0.00000
C53 C 0.55765 0.59734 0.68267 0.00000
C54 C 0.56663 0.61579 0.70540 0.00000
C55 C 0.59886 0.65034 0.70602 0.00000
C56 C 0.62042 0.66344 0.68549 0.00000
C57 C 0.69260 0.66159 0.68088 0.00000
C58 C 0.71805 0.67288 0.69958 0.00000
C59 C 0.74758 0.70912 0.69979 0.00000
C60 C 0.74831 0.73276 0.68136 0.00000
C61 C 0.72123 0.71885 0.66352 0.00000
H62 H 0.61042 0.57800 0.63916 0.00000
H63 H 0.61978 0.53053 0.63016 0.00000
H64 H 0.72366 0.60453 0.61218 0.00000
N65 N 0.65928 0.61892 0.63103 0.00000
H66 H 0.71104 0.64934 0.62263 0.00000
N67 N 0.61281 0.64831 0.60779 0.00000
N68 N 0.61292 0.64522 0.66366 0.00000
N69 N 0.69372 0.68388 0.66271 0.00000
H70 H 0.59278 0.67888 0.61949 0.00000
H71 H 0.55729 0.67352 0.58607 0.00000
H72 H 0.58918 0.60772 0.55484 0.00000
H73 H 0.62342 0.61463 0.58926 0.00000
H74 H 0.57471 0.60076 0.64807 0.00000
H75 H 0.53633 0.57494 0.68093 0.00000
H76 H 0.60547 0.66416 0.72029 0.00000
H77 H 0.64146 0.68615 0.68656 0.00000
H78 H 0.67378 0.63745 0.68079 0.00000
H79 H 0.71576 0.65672 0.71192 0.00000
H80 H 0.76653 0.75721 0.68115 0.00000
H81 H 0.72208 0.73460 0.65132 0.00000
C82 C 0.58342 0.95035 0.36652 0.00000
C83 C 0.55451 0.91605 0.37193 0.00000
C84 C 0.56157 0.88875 0.38078 0.00000
C85 C 0.59831 0.89819 0.38257 0.00000
C86 C 0.62528 0.93321 0.37641 0.00000
Ni87 Ni 0.66546 0.01294 0.36426 0.00000
C88 C 0.66218 0.09133 0.41408 0.00000
C89 C 0.64179 0.07133 0.43433 0.00000
C90 C 0.62289 0.03304 0.43256 0.00000
C91 C 0.62717 0.01686 0.41164 0.00000
C92 C 0.66500 0.07285 0.39386 0.00000
C93 C 0.61339 0.03234 0.33718 0.00000
C94 C 0.59757 0.04010 0.31741 0.00000
C95 C 0.61604 0.04963 0.29470 0.00000
C96 C 0.65057 0.05197 0.29410 0.00000
C97 C 0.66364 0.04351 0.31463 0.00000
C98 C 0.66173 0.96944 0.31921 0.00000
C99 C 0.67302 0.95531 0.30051 0.00000
C100 C 0.70925 0.96207 0.30033 0.00000
C101 C 0.73288 0.98499 0.31878 0.00000
C102 C 0.71897 0.99813 0.33663 0.00000
H103 H 0.57813 0.96789 0.36087 0.00000
H104 H 0.53062 0.91096 0.36980 0.00000
H105 H 0.60455 0.88114 0.38782 0.00000
N106 N 0.61901 0.95998 0.36902 0.00000
H107 H 0.64939 0.93865 0.37744 0.00000
N108 N 0.64843 0.03588 0.39232 0.00000
N109 N 0.64540 0.03274 0.33645 0.00000
N110 N 0.68401 0.99063 0.33741 0.00000
H111 H 0.67904 0.08655 0.38067 0.00000
H112 H 0.67368 0.11666 0.41410 0.00000
H113 H 0.60779 0.01881 0.44524 0.00000
H114 H 0.61471 0.99152 0.41081 0.00000
H115 H 0.60094 0.02642 0.35200 0.00000
H116 H 0.57517 0.03899 0.31913 0.00000
H117 H 0.66441 0.05923 0.27984 0.00000
H118 H 0.68635 0.04521 0.31359 0.00000
H119 H 0.63759 0.96409 0.31928 0.00000
H120 H 0.65687 0.94143 0.28815 0.00000
H121 H 0.75732 0.99125 0.31902 0.00000
H122 H 0.73471 0.01305 0.34885 0.00000
C123 C 0.04985 0.63314 0.36654 0.00000
C124 C 0.08413 0.63856 0.37197 0.00000
C125 C 0.11146 0.67298 0.38083 0.00000
C126 C 0.10206 0.70029 0.38260 0.00000
C127 C 0.06705 0.69220 0.37642 0.00000
Ni128 Ni 0.98733 0.65257 0.36423 0.00000
C129 C 0.90888 0.57081 0.41401 0.00000
C130 C 0.92886 0.57045 0.43428 0.00000
C131 C 0.96715 0.58987 0.43253 0.00000
C132 C 0.98334 0.61035 0.41162 0.00000
C133 C 0.92737 0.59213 0.39380 0.00000
C134 C 0.96785 0.58102 0.33715 0.00000
C135 C 0.96006 0.55740 0.31738 0.00000
C136 C 0.95056 0.56634 0.29466 0.00000
C137 C 0.94826 0.59855 0.29406 0.00000
C138 C 0.95674 0.62011 0.31459 0.00000
C139 C 0.03086 0.69236 0.31920 0.00000
C140 C 0.04501 0.71781 0.30050 0.00000
C141 C 0.03830 0.74729 0.30031 0.00000
C142 C 0.01539 0.74799 0.31875 0.00000
C143 C 0.00222 0.72092 0.33659 0.00000
H144 H 0.03230 0.61028 0.36088 0.00000
H145 H 0.08919 0.61975 0.36985 0.00000
H146 H 0.11913 0.72360 0.38786 0.00000
N147 N 0.04026 0.65912 0.36903 0.00000
H148 H 0.06164 0.71088 0.37744 0.00000
N149 N 0.96435 0.61257 0.39229 0.00000
N150 N 0.96749 0.61265 0.33642 0.00000
N151 N 0.00968 0.69346 0.33738 0.00000
H152 H 0.91369 0.59246 0.38060 0.00000
H153 H 0.88355 0.55696 0.41402 0.00000
H154 H 0.98137 0.58902 0.44522 0.00000
H155 H 0.00869 0.62326 0.41080 0.00000
H156 H 0.97376 0.57449 0.35198 0.00000
H157 H 0.96115 0.53611 0.31911 0.00000
H158 H 0.94102 0.60512 0.27979 0.00000
H159 H 0.95508 0.64113 0.31354 0.00000
H160 H 0.03618 0.67357 0.31928 0.00000
H161 H 0.05889 0.71554 0.28815 0.00000
H162 H 0.00917 0.76619 0.31898 0.00000
H163 H 0.98732 0.72175 0.34880 0.00000
C164 C 0.67167 0.64120 0.13507 0.00000
C165 C 0.70798 0.65239 0.13079 0.00000
C166 C 0.73169 0.68827 0.12224 0.00000
C167 C 0.71665 0.71099 0.11955 0.00000
C168 C 0.67999 0.69727 0.12460 0.00000
Ni169 Ni 0.60054 0.64705 0.13467 0.00000
C170 C 0.53409 0.55968 0.08375 0.00000
C171 C 0.55699 0.56313 0.06425 0.00000
C172 C 0.59460 0.58756 0.06701 0.00000
C173 C 0.60698 0.60877 0.08806 0.00000
C174 C 0.54884 0.58207 0.10418 0.00000
C175 C 0.59096 0.57931 0.16248 0.00000
C176 C 0.58565 0.55664 0.18244 0.00000
C177 C 0.57232 0.56278 0.20459 0.00000
C178 C 0.56389 0.59117 0.20444 0.00000
C179 C 0.57037 0.61213 0.18380 0.00000
C180 C 0.63732 0.69047 0.18042 0.00000
C181 C 0.64673 0.71576 0.19909 0.00000
C182 C 0.63407 0.74091 0.19842 0.00000
C183 C 0.61040 0.73740 0.17914 0.00000
C184 C 0.60229 0.71084 0.16140 0.00000
H185 H 0.65658 0.61748 0.14055 0.00000
H186 H 0.71676 0.63648 0.13349 0.00000
H187 H 0.73111 0.73502 0.11444 0.00000
N188 N 0.65671 0.66270 0.13169 0.00000
H189 H 0.67080 0.71300 0.12299 0.00000
N190 N 0.58487 0.60716 0.10663 0.00000
N191 N 0.58472 0.60754 0.16254 0.00000
N192 N 0.61543 0.68763 0.16145 0.00000
H193 H 0.53319 0.57978 0.11685 0.00000
H194 H 0.50932 0.54262 0.08309 0.00000
H195 H 0.61089 0.58949 0.05487 0.00000
H196 H 0.63189 0.62499 0.08954 0.00000
H197 H 0.59946 0.57463 0.14803 0.00000
H198 H 0.59084 0.53780 0.18119 0.00000
H199 H 0.55397 0.59566 0.21829 0.00000
H200 H 0.56465 0.63063 0.18435 0.00000
H201 H 0.64651 0.67463 0.18093 0.00000
H202 H 0.66133 0.71622 0.21198 0.00000
H203 H 0.60036 0.75254 0.17830 0.00000
H204 H 0.58684 0.70889 0.14863 0.00000
C205 C 0.35916 0.03069 0.13505 0.00000
C206 C 0.34802 0.05584 0.13076 0.00000
C207 C 0.31215 0.04364 0.12220 0.00000
C208 C 0.28938 0.00585 0.11952 0.00000
C209 C 0.30304 0.98289 0.12458 0.00000
Ni210 Ni 0.35316 0.95363 0.13467 0.00000
C211 C 0.44045 0.97453 0.08377 0.00000
C212 C 0.43702 0.99397 0.06426 0.00000
C213 C 0.41264 0.00717 0.06701 0.00000
C214 C 0.39146 0.99836 0.08806 0.00000
C215 C 0.41809 0.96691 0.10419 0.00000
C216 C 0.42098 0.01190 0.16248 0.00000
C217 C 0.44368 0.02930 0.18244 0.00000
C218 C 0.43753 0.00985 0.20460 0.00000
C219 C 0.40909 0.97298 0.20445 0.00000
C220 C 0.38811 0.95847 0.18381 0.00000
C221 C 0.30982 0.94705 0.18042 0.00000
C222 C 0.28455 0.93118 0.19908 0.00000
C223 C 0.25935 0.89332 0.19842 0.00000
C224 C 0.26279 0.87311 0.17915 0.00000
C225 C 0.28935 0.89157 0.16140 0.00000
H226 H 0.38287 0.03934 0.14053 0.00000
H227 H 0.36397 0.08055 0.13345 0.00000
H228 H 0.26535 0.99625 0.11440 0.00000
N229 N 0.33761 0.99420 0.13167 0.00000
H230 H 0.28728 0.95793 0.12297 0.00000
N231 N 0.39304 0.97785 0.10663 0.00000
N232 N 0.39271 0.97739 0.16255 0.00000
N233 N 0.31260 0.92796 0.16145 0.00000
H234 H 0.42036 0.95356 0.11687 0.00000
H235 H 0.45748 0.96682 0.08312 0.00000
H236 H 0.41074 0.02153 0.05487 0.00000
H237 H 0.37527 0.00706 0.08954 0.00000
H238 H 0.42567 0.02508 0.14802 0.00000
H239 H 0.46255 0.05336 0.18119 0.00000
H240 H 0.40460 0.95859 0.21830 0.00000
H241 H 0.36958 0.93421 0.18436 0.00000
H242 H 0.32569 0.97211 0.18092 0.00000
H243 H 0.28412 0.94534 0.21197 0.00000
H244 H 0.24762 0.84791 0.17832 0.00000
H245 H 0.29126 0.87804 0.14865 0.00000
C246 C 0.96917 0.32828 0.13496 0.00000
C247 C 0.94399 0.29196 0.13066 0.00000
C248 C 0.95614 0.26828 0.12209 0.00000
C249 C 0.99393 0.28334 0.11942 0.00000
C250 C 0.01693 0.32000 0.12450 0.00000
Ni251 Ni 0.04627 0.39945 0.13462 0.00000
C252 C 0.02545 0.46588 0.08374 0.00000
C253 C 0.00599 0.44299 0.06422 0.00000
C254 C 0.99275 0.40538 0.06695 0.00000
C255 C 0.00155 0.39299 0.08801 0.00000
C256 C 0.03306 0.45113 0.10416 0.00000
C257 C 0.98806 0.40896 0.16243 0.00000
C258 C 0.97069 0.41425 0.18239 0.00000
C259 C 0.99016 0.42757 0.20455 0.00000
C260 C 0.02701 0.43603 0.20442 0.00000
C261 C 0.04150 0.42957 0.18377 0.00000
C262 C 0.05282 0.36267 0.18036 0.00000
C263 C 0.06867 0.35326 0.19902 0.00000
C264 C 0.10652 0.36595 0.19837 0.00000
C265 C 0.12674 0.38964 0.17911 0.00000
C266 C 0.10829 0.39773 0.16136 0.00000
H267 H 0.96055 0.34336 0.14045 0.00000
H268 H 0.91928 0.28317 0.13334 0.00000
H269 H 0.00350 0.26890 0.11430 0.00000
N270 N 0.00565 0.34326 0.13160 0.00000
H271 H 0.04187 0.32922 0.12290 0.00000
N272 N 0.02208 0.41511 0.10659 0.00000
N273 N 0.02256 0.41523 0.16251 0.00000
N274 N 0.07192 0.38456 0.16140 0.00000
H275 H 0.04643 0.46678 0.11684 0.00000
H276 H 0.03319 0.49065 0.08310 0.00000
H277 H 0.97837 0.38909 0.05481 0.00000
H278 H 0.99282 0.36809 0.08947 0.00000
H279 H 0.97488 0.40046 0.14797 0.00000
H280 H 0.94664 0.40904 0.18114 0.00000
H281 H 0.04142 0.44594 0.21827 0.00000
H282 H 0.06574 0.43531 0.18433 0.00000
H283 H 0.02776 0.35345 0.18085 0.00000
H284 H 0.05451 0.33865 0.21190 0.00000
H285 H 0.15194 0.39969 0.17828 0.00000
H286 H 0.12184 0.41320 0.14861 0.00000
C287 C 0.36674 0.41669 0.36650 0.00000
C288 C 0.36139 0.44558 0.37195 0.00000
C289 C 0.32699 0.43847 0.38080 0.00000
C290 C 0.29964 0.40173 0.38256 0.00000
C291 C 0.30767 0.37478 0.37636 0.00000
Ni292 Ni 0.34718 0.33467 0.36415 0.00000
C293 C 0.42890 0.33796 0.41393 0.00000
C294 C 0.42931 0.35832 0.43421 0.00000
C295 C 0.40994 0.37720 0.43246 0.00000
C296 C 0.38946 0.37292 0.41155 0.00000
C297 C 0.40758 0.33514 0.39371 0.00000
C298 C 0.41874 0.38680 0.33710 0.00000
C299 C 0.44235 0.40266 0.31733 0.00000
C300 C 0.43338 0.38421 0.29460 0.00000
C301 C 0.40114 0.34966 0.29398 0.00000
C302 C 0.37959 0.33656 0.31451 0.00000
C303 C 0.30741 0.33841 0.31912 0.00000
C304 C 0.28195 0.32712 0.30042 0.00000
C305 C 0.25243 0.29088 0.30021 0.00000
C306 C 0.25169 0.26724 0.31864 0.00000
C307 C 0.27877 0.28115 0.33648 0.00000
H308 H 0.38959 0.42200 0.36084 0.00000
H309 H 0.38022 0.46947 0.36984 0.00000
H310 H 0.27634 0.39547 0.38782 0.00000
N311 N 0.34072 0.38108 0.36897 0.00000
H312 H 0.28896 0.35066 0.37737 0.00000
N313 N 0.38719 0.35169 0.39221 0.00000
N314 N 0.38709 0.35478 0.33634 0.00000
N315 N 0.30628 0.31612 0.33729 0.00000
H316 H 0.40722 0.32112 0.38051 0.00000
H317 H 0.44272 0.32648 0.41393 0.00000
H318 H 0.41082 0.39228 0.44516 0.00000
H319 H 0.37658 0.38537 0.41074 0.00000
H320 H 0.42529 0.39924 0.35193 0.00000
H321 H 0.46367 0.42506 0.31907 0.00000
H322 H 0.39453 0.33584 0.27971 0.00000
H323 H 0.35854 0.31385 0.31344 0.00000
H324 H 0.32623 0.36255 0.31922 0.00000
H325 H 0.28424 0.34328 0.28808 0.00000
H326 H 0.23347 0.24279 0.31885 0.00000
H327 H 0.27793 0.26540 0.34869 0.00000
C328 C 0.95028 0.58337 0.86654 0.00000
C329 C 0.91599 0.55446 0.87196 0.00000
C330 C 0.88868 0.56153 0.88081 0.00000
C331 C 0.89813 0.59827 0.88260 0.00000
C332 C 0.93315 0.62524 0.87643 0.00000
Ni333 Ni 0.01287 0.66541 0.86427 0.00000
C334 C 0.09127 0.66214 0.91407 0.00000
C335 C 0.07128 0.64176 0.93433 0.00000
C336 C 0.03299 0.62286 0.93256 0.00000
C337 C 0.01681 0.62713 0.91165 0.00000
C338 C 0.07279 0.66496 0.89386 0.00000
C339 C 0.03226 0.61333 0.83719 0.00000
C340 C 0.04002 0.59751 0.81741 0.00000
C341 C 0.04954 0.61598 0.79470 0.00000
C342 C 0.05189 0.65051 0.79411 0.00000
C343 C 0.04343 0.66358 0.81464 0.00000
C344 C 0.96937 0.66167 0.81923 0.00000
C345 C 0.95524 0.67296 0.80053 0.00000
C346 C 0.96199 0.70919 0.80035 0.00000
C347 C 0.98492 0.73282 0.81881 0.00000
C348 C 0.99806 0.71892 0.83665 0.00000
H349 H 0.96782 0.57808 0.86089 0.00000
H350 H 0.91090 0.53057 0.86983 0.00000
H351 H 0.88108 0.60451 0.88786 0.00000
N352 N 0.95991 0.61897 0.86905 0.00000
H353 H 0.93859 0.64935 0.87746 0.00000
N354 N 0.03582 0.64839 0.89233 0.00000
N355 N 0.03267 0.64534 0.83646 0.00000
N356 N 0.99056 0.68396 0.83743 0.00000
H357 H 0.08648 0.67900 0.88067 0.00000
H358 H 0.11660 0.67364 0.91410 0.00000
H359 H 0.01876 0.60776 0.94525 0.00000
H360 H 0.99146 0.61468 0.91082 0.00000
H361 H 0.02635 0.60088 0.85201 0.00000
H362 H 0.03891 0.57511 0.81913 0.00000
H363 H 0.05914 0.66434 0.77985 0.00000
H364 H 0.04513 0.68629 0.81359 0.00000
H365 H 0.96402 0.63753 0.81931 0.00000
H366 H 0.94134 0.65680 0.78817 0.00000
H367 H 0.99117 0.75727 0.81904 0.00000
H368 H 0.01298 0.73466 0.84886 0.00000
C369 C 0.41664 0.36670 0.86651 0.00000
C370 C 0.44554 0.36135 0.87196 0.00000
C371 C 0.43843 0.32695 0.88081 0.00000
C372 C 0.40169 0.29960 0.88257 0.00000
C373 C 0.37474 0.30763 0.87638 0.00000
Ni374 Ni 0.33463 0.34714 0.86417 0.00000
C375 C 0.33793 0.42887 0.91396 0.00000
C376 C 0.35829 0.42929 0.93424 0.00000
C377 C 0.37717 0.40991 0.93249 0.00000
C378 C 0.37289 0.38943 0.91158 0.00000
C379 C 0.33511 0.40755 0.89375 0.00000
C380 C 0.38676 0.41870 0.83712 0.00000
C381 C 0.40261 0.44231 0.81735 0.00000
C382 C 0.38415 0.43333 0.79463 0.00000
C383 C 0.34961 0.40109 0.79401 0.00000
C384 C 0.33651 0.37954 0.81454 0.00000
C385 C 0.33836 0.30736 0.81914 0.00000
C386 C 0.32706 0.28190 0.80044 0.00000
C387 C 0.29083 0.25237 0.80024 0.00000
C388 C 0.26719 0.25165 0.81867 0.00000
C389 C 0.28110 0.27873 0.83652 0.00000
H390 H 0.42196 0.38954 0.86086 0.00000
H391 H 0.46943 0.38018 0.86984 0.00000
H392 H 0.39543 0.27631 0.88783 0.00000
N393 N 0.38104 0.34068 0.86899 0.00000
H394 H 0.35062 0.28892 0.87739 0.00000
N395 N 0.35166 0.38716 0.89224 0.00000
N396 N 0.35474 0.38704 0.83637 0.00000
N397 N 0.31607 0.30624 0.83732 0.00000
H398 H 0.32109 0.40719 0.88055 0.00000
H399 H 0.32645 0.44269 0.91397 0.00000
H400 H 0.39225 0.41080 0.94519 0.00000
H401 H 0.38533 0.37655 0.91076 0.00000
H402 H 0.39920 0.42525 0.85195 0.00000
H403 H 0.42501 0.46362 0.81909 0.00000
H404 H 0.33579 0.39448 0.77974 0.00000
H405 H 0.31380 0.35849 0.81347 0.00000
H406 H 0.36250 0.32618 0.81924 0.00000
H407 H 0.34323 0.28419 0.78810 0.00000
H408 H 0.24275 0.23342 0.81889 0.00000
H409 H 0.26536 0.27788 0.84872 0.00000
C410 C 0.63310 0.04979 0.86651 0.00000
C411 C 0.63851 0.08407 0.87194 0.00000
C412 C 0.67293 0.11141 0.88079 0.00000
C413 C 0.70024 0.10201 0.88256 0.00000
C414 C 0.69216 0.06700 0.87638 0.00000
Ni415 Ni 0.65252 0.98727 0.86419 0.00000
C416 C 0.57078 0.90882 0.91398 0.00000
C417 C 0.57041 0.92881 0.93425 0.00000
C418 C 0.58984 0.96710 0.93250 0.00000
C419 C 0.61031 0.98329 0.91158 0.00000
C420 C 0.59209 0.92731 0.89377 0.00000
C421 C 0.58097 0.96778 0.83713 0.00000
C422 C 0.55736 0.95999 0.81736 0.00000
C423 C 0.56629 0.95048 0.79464 0.00000
C424 C 0.59850 0.94818 0.79403 0.00000
C425 C 0.62006 0.95667 0.81456 0.00000
C426 C 0.69231 0.03079 0.81915 0.00000
C427 C 0.71775 0.04494 0.80046 0.00000
C428 C 0.74724 0.03824 0.80026 0.00000
C429 C 0.74794 0.01533 0.81870 0.00000
C430 C 0.72088 0.00216 0.83655 0.00000
H431 H 0.61024 0.03223 0.86085 0.00000
H432 H 0.61970 0.08913 0.86982 0.00000
H433 H 0.72355 0.11908 0.88782 0.00000
N434 N 0.65908 0.04020 0.86899 0.00000
H435 H 0.71084 0.06159 0.87740 0.00000
N436 N 0.61253 0.96429 0.89225 0.00000
N437 N 0.61260 0.96743 0.83639 0.00000
N438 N 0.69341 0.00962 0.83734 0.00000
H439 H 0.59242 0.91363 0.88057 0.00000
H440 H 0.55692 0.88349 0.91400 0.00000
H441 H 0.58899 0.98132 0.94519 0.00000
H442 H 0.62322 0.00864 0.91077 0.00000
H443 H 0.57445 0.97369 0.85195 0.00000
H444 H 0.53606 0.96108 0.81909 0.00000
H445 H 0.60507 0.94094 0.77976 0.00000
H446 H 0.64108 0.95501 0.81350 0.00000
H447 H 0.67352 0.03611 0.81924 0.00000
H448 H 0.71548 0.05882 0.78811 0.00000
H449 H 0.76614 0.00910 0.81893 0.00000
H450 H 0.72170 0.98726 0.84875 0.00000
C451 C 0.41658 0.04965 0.63348 0.00000
C452 C 0.44550 0.08395 0.62807 0.00000
C453 C 0.43843 0.11126 0.61922 0.00000
C454 C 0.40169 0.10181 0.61743 0.00000
C455 C 0.37472 0.06679 0.62359 0.00000
Ni456 Ni 0.33454 0.98706 0.63574 0.00000
C457 C 0.33782 0.90867 0.58592 0.00000
C458 C 0.35821 0.92867 0.56567 0.00000
C459 C 0.37711 0.96696 0.56744 0.00000
C460 C 0.37283 0.98314 0.58836 0.00000
C461 C 0.33500 0.92715 0.60614 0.00000
C462 C 0.38661 0.96766 0.66282 0.00000
C463 C 0.40243 0.95990 0.68259 0.00000
C464 C 0.38396 0.95037 0.70530 0.00000
C465 C 0.34943 0.94803 0.70590 0.00000
C466 C 0.33636 0.95649 0.68537 0.00000
C467 C 0.33827 0.03056 0.68079 0.00000
C468 C 0.32698 0.04469 0.69949 0.00000
C469 C 0.29075 0.03794 0.69967 0.00000
C470 C 0.26712 0.01501 0.68122 0.00000
C471 C 0.28103 0.00187 0.66337 0.00000
H472 H 0.42188 0.03212 0.63913 0.00000
H473 H 0.46938 0.08904 0.63020 0.00000
H474 H 0.39546 0.11886 0.61218 0.00000
N475 N 0.38099 0.04002 0.63098 0.00000
H476 H 0.35061 0.06135 0.62256 0.00000
N477 N 0.35157 0.96412 0.60768 0.00000
N478 N 0.35461 0.96726 0.66355 0.00000
N479 N 0.31599 0.00937 0.66259 0.00000
H480 H 0.32096 0.91345 0.61933 0.00000
H481 H 0.32632 0.88334 0.58590 0.00000
H482 H 0.39221 0.98119 0.55476 0.00000
H483 H 0.38529 0.00848 0.58919 0.00000
H484 H 0.39907 0.97358 0.64800 0.00000
H485 H 0.42483 0.96101 0.68087 0.00000
H486 H 0.33559 0.94077 0.72016 0.00000
H487 H 0.31365 0.95479 0.68641 0.00000
H488 H 0.36241 0.03591 0.68072 0.00000
H489 H 0.34313 0.05858 0.71185 0.00000
H490 H 0.24268 0.00876 0.68098 0.00000
H491 H 0.26529 0.98695 0.65115 0.00000
O492 O 0.90234 0.17687 0.72988 0.00000
C493 C 0.91137 0.20907 0.72428 0.00000
O494 O 0.89623 0.22667 0.73160 0.00000
Ni495 Ni 0.85549 0.13943 0.74728 0.00000
O496 O 0.82004 0.05852 0.77634 0.00000
O497 O 0.80894 0.10272 0.76439 0.00000
C498 C 0.80156 0.07465 0.77665 0.00000
O499 O 0.89000 0.70188 0.77122 0.00000
C500 C 0.92411 0.72155 0.77169 0.00000
O501 O 0.94289 0.75222 0.76132 0.00000
Ni502 Ni 0.85440 0.70794 0.74896 0.00000
O503 O 0.76463 0.67874 0.74368 0.00000
O504 O 0.81963 0.71426 0.72672 0.00000
C505 C 0.78615 0.70351 0.72898 0.00000
O506 O 0.64955 0.80227 0.23458 0.00000
C507 C 0.66051 0.79276 0.21613 0.00000
O508 O 0.69080 0.81151 0.20529 0.00000
Ni509 Ni 0.67217 0.85354 0.24938 0.00000
O510 O 0.66919 0.89595 0.30091 0.00000
O511 O 0.69481 0.90446 0.26369 0.00000
C512 C 0.69297 0.91516 0.28492 0.00000
O513 O 0.18831 0.86076 0.22767 0.00000
C514 C 0.21775 0.86085 0.22467 0.00000
O515 O 0.22514 0.83710 0.23246 0.00000
Ni516 Ni 0.14651 0.82810 0.25090 0.00000
O517 O 0.05829 0.80158 0.26154 0.00000
O518 O 0.10554 0.79569 0.27407 0.00000
C519 C 0.07216 0.78603 0.27383 0.00000
O520 O 0.14209 0.34101 0.23725 0.00000
C521 C 0.14034 0.34882 0.21527 0.00000
O522 O 0.15625 0.34399 0.19719 0.00000
Ni523 Ni 0.17768 0.32678 0.25208 0.00000
O524 O 0.18951 0.28929 0.30326 0.00000
O525 O 0.21321 0.31294 0.26644 0.00000
C526 C 0.21135 0.29537 0.28555 0.00000
O527 O 0.27420 0.17956 0.76570 0.00000
C528 C 0.29592 0.20539 0.77921 0.00000
O529 O 0.32889 0.21484 0.78350 0.00000
Ni530 Ni 0.28149 0.13899 0.75126 0.00000
O531 O 0.24632 0.07338 0.70797 0.00000
O532 O 0.28909 0.09898 0.73724 0.00000
C533 C 0.27510 0.07863 0.71885 0.00000
O534 O 0.01542 0.47010 0.52137 0.00000
C535 C 0.04771 0.47657 0.52282 0.00000
O536 O 0.07560 0.50347 0.51347 0.00000
Ni537 Ni 0.99582 0.49498 0.49872 0.00000
O538 O 0.92176 0.50406 0.49137 0.00000
O539 O 0.97691 0.51976 0.47612 0.00000
C540 C 0.94904 0.52310 0.47760 0.00000
O541 O 0.50914 0.54272 0.52243 0.00000
C542 C 0.53987 0.57078 0.52503 0.00000
O543 O 0.56857 0.57861 0.51312 0.00000
Ni544 Ni 0.49724 0.49665 0.50298 0.00000
O545 O 0.42510 0.42121 0.47979 0.00000
O546 O 0.48602 0.45124 0.48376 0.00000
C547 C 0.45669 0.42683 0.47437 0.00000
O548 O 0.54330 0.03458 0.47832 0.00000
C549 C 0.57270 0.03414 0.47745 0.00000
O550 O 0.57921 0.01115 0.48770 0.00000
Ni551 Ni 0.49988 0.00466 0.50112 0.00000
O552 O 0.41130 0.97986 0.50757 0.00000
O553 O 0.45730 0.97498 0.52390 0.00000
C554 C 0.42406 0.96552 0.52207 0.00000
O555 O 0.48919 0.51344 0.02918 0.00000
C556 C 0.52271 0.53607 0.02788 0.00000
O557 O 0.53997 0.55368 0.00900 0.00000
Ni558 Ni 0.45338 0.49073 0.00010 0.00000
O559 O 0.36299 0.44343 0.98933 0.00000
O560 O 0.41841 0.46843 0.97199 0.00000
C561 C 0.38425 0.45425 0.97091 0.00000
O562 O 0.52485 0.94699 0.96907 0.00000
C563 C 0.54540 0.93364 0.97046 0.00000
O564 O 0.55376 0.92290 0.98980 0.00000
Ni565 Ni 0.50566 0.96427 0.99753 0.00000
O566 O 0.44162 0.98714 0.00955 0.00000
O567 O 0.48710 0.98138 0.02590 0.00000
C568 C 0.45964 0.98537 0.02762 0.00000
O569 O 0.01232 0.49751 0.01912 0.00000
C570 C 0.02670 0.48758 0.03524 0.00000
O571 O 0.05912 0.50580 0.04316 0.00000
Ni572 Ni 0.03828 0.54152 0.99615 0.00000
O573 O 0.01960 0.59250 0.95788 0.00000
O574 O 0.06444 0.58505 0.97351 0.00000
C575 C 0.05299 0.60313 0.96203 0.00000
O576 O 0.06661 0.57613 0.76567 0.00000
C577 C 0.04314 0.58254 0.77472 0.00000
O578 O 0.00952 0.55979 0.77756 0.00000
Ni579 Ni 0.05731 0.53017 0.74710 0.00000
O580 O 0.10206 0.48779 0.72757 0.00000
O581 O 0.04758 0.48460 0.72868 0.00000
C582 C 0.06761 0.47093 0.72497 0.00000
O583 O 0.43578 0.49116 0.77479 0.00000
C584 C 0.40727 0.46248 0.76863 0.00000
O585 O 0.39865 0.44955 0.74714 0.00000
Ni586 Ni 0.47289 0.53091 0.75199 0.00000
O587 O 0.55823 0.60324 0.75289 0.00000
O588 O 0.50920 0.57003 0.72918 0.00000
C589 C 0.54230 0.59360 0.73222 0.00000
O590 O 0.48967 0.03767 0.22891 0.00000
C591 C 0.46108 0.00983 0.22178 0.00000
O592 O 0.45052 0.97711 0.22774 0.00000
Ni593 Ni 0.53269 0.03916 0.24717 0.00000
O594 O 0.60708 0.09719 0.27974 0.00000
O595 O 0.57505 0.04011 0.26511 0.00000
C596 C 0.59924 0.06406 0.27871 0.00000
O597 O 0.97741 0.45503 0.23798 0.00000
C598 C 0.97471 0.44491 0.21605 0.00000
O599 O 0.96709 0.45841 0.19780 0.00000
Ni600 Ni 0.96169 0.48971 0.25241 0.00000
O601 O 0.97283 0.53947 0.30329 0.00000
O602 O 0.94583 0.52392 0.26638 0.00000
C603 C 0.95584 0.54341 0.28541 0.00000
O604 O 0.54451 0.50895 0.22608 0.00000
C605 C 0.55101 0.54123 0.22437 0.00000
O606 O 0.53803 0.55637 0.23783 0.00000
Ni607 Ni 0.50454 0.46783 0.24661 0.00000
O608 O 0.48037 0.38410 0.26806 0.00000
O609 O 0.46474 0.42747 0.26693 0.00000
C610 C 0.46191 0.39846 0.27535 0.00000
O611 O 0.50663 0.93392 0.76993 0.00000
C612 C 0.54055 0.95472 0.77119 0.00000
O613 O 0.55855 0.98669 0.76250 0.00000
Ni614 Ni 0.47061 0.94062 0.74856 0.00000
O615 O 0.38032 0.90826 0.74261 0.00000
O616 O 0.43543 0.94761 0.72721 0.00000
C617 C 0.40159 0.93517 0.72921 0.00000
loop_
_geom_bond_atom_site_label_1
_geom_bond_atom_site_label_2
_geom_bond_distance
_geom_bond_site_symmetry_2
_ccdc_geom_bond_type
C0 C1 1.384 . A
C0 H21 0.930 . S
C0 N24 1.358 . A
C1 C2 1.417 . A
C1 H22 0.930 . S
C2 C3 1.403 . A
C3 C4 1.386 . A
C3 H23 0.930 . S
C4 N24 1.349 . A
C4 H25 0.929 . S
Ni5 N24 2.133 1_455 S
Ni5 N26 2.124 . S
Ni5 N27 2.107 . S
Ni5 N28 2.097 1_455 S
C6 C7 1.397 . A
C6 C10 1.392 . A
C6 H30 0.930 . S
C7 C8 1.407 . A
C8 C9 1.389 . A
C8 H31 0.930 . S
C9 N26 1.358 . A
C9 H32 0.931 1_455 S
C10 N26 1.361 . A
C10 H29 0.929 . S
C11 C12 1.393 . A
C11 N27 1.348 . A
C11 H33 0.929 . S
C12 C13 1.412 . A
C12 H34 0.931 . S
C13 C14 1.416 . A
C14 C15 1.374 . A
C14 H35 0.929 . S
C15 N27 1.367 . A
C15 H36 0.930 . S
C16 C17 1.384 . A
C16 N28 1.354 . A
C16 H37 0.930 . S
C17 C18 1.413 . A
C17 H38 0.930 . S
C18 C19 1.408 . A
C19 C20 1.390 . A
C19 H39 0.932 . S
C20 N28 1.351 . A
C20 H40 0.930 1_655 S
C41 C42 1.384 . A
C41 H62 0.930 . S
C41 N65 1.358 . A
C42 C43 1.417 . A
C42 H63 0.930 . S
C43 C44 1.403 . A
C44 C45 1.386 . A
C44 H64 0.930 . S
C45 N65 1.349 . A
C45 H66 0.929 . S
Ni46 N65 2.133 . S
Ni46 N67 2.124 . S
Ni46 N68 2.107 . S
Ni46 N69 2.097 . S
C47 C48 1.397 . A
C47 C51 1.392 . A
C47 H71 0.930 . S
C48 C49 1.407 . A
C49 C50 1.389 . A
C49 H72 0.930 . S
C50 N67 1.358 . A
C50 H73 0.931 . S
C51 N67 1.361 . A
C51 H70 0.929 . S
C52 C53 1.393 . A
C52 N68 1.348 . A
C52 H74 0.929 . S
C53 C54 1.412 . A
C53 H75 0.931 . S
C54 C55 1.416 . A
C55 C56 1.374 . A
C55 H76 0.929 . S
C56 N68 1.367 . A
C56 H77 0.930 . S
C57 C58 1.384 . A
C57 N69 1.354 . A
C57 H78 0.930 . S
C58 C59 1.413 . A
C58 H79 0.930 . S
C59 C60 1.408 . A
C60 C61 1.390 . A
C60 H80 0.932 . S
C61 N69 1.351 . A
C61 H81 0.930 . S
C82 C83 1.384 . A
C82 H103 0.930 . S
C82 N106 1.358 . A
C83 C84 1.417 . A
C83 H104 0.930 . S
C84 C85 1.403 . A
C85 C86 1.386 . A
C85 H105 0.930 . S
C86 N106 1.349 . A
C86 H107 0.929 . S
Ni87 N106 2.133 1_545 S
Ni87 N108 2.124 . S
Ni87 N109 2.107 . S
Ni87 N110 2.097 1_545 S
C88 C89 1.397 . A
C88 C92 1.392 . A
C88 H112 0.930 . S
C89 C90 1.407 . A
C90 C91 1.389 . A
C90 H113 0.930 . S
C91 N108 1.358 . A
C91 H114 0.931 1_545 S
C92 N108 1.361 . A
C92 H111 0.929 . S
C93 C94 1.393 . A
C93 N109 1.348 . A
C93 H115 0.929 . S
C94 C95 1.412 . A
C94 H116 0.931 . S
C95 C96 1.416 . A
C96 C97 1.374 . A
C96 H117 0.929 . S
C97 N109 1.367 . A
C97 H118 0.930 . S
C98 C99 1.384 . A
C98 N110 1.354 . A
C98 H119 0.930 . S
C99 C100 1.413 . A
C99 H120 0.930 . S
C100 C101 1.408 . A
C101 C102 1.390 . A
C101 H121 0.932 . S
C102 N110 1.351 . A
C102 H122 0.930 1_565 S
C123 C124 1.384 . A
C123 H144 0.930 . S
C123 N147 1.358 . A
C124 C125 1.417 . A
C124 H145 0.930 . S
C125 C126 1.403 . A
C126 C127 1.386 . A
C126 H146 0.930 . S
C127 N147 1.349 . A
C127 H148 0.929 . S
Ni128 N147 2.133 1_655 S
Ni128 N149 2.124 . S
Ni128 N150 2.107 . S
Ni128 N151 2.097 1_655 S
C129 C130 1.397 . A
C129 C133 1.392 . A
C129 H153 0.930 . S
C130 C131 1.407 . A
C131 C132 1.389 . A
C131 H154 0.930 . S
C132 N149 1.358 . A
C132 H155 0.931 1_655 S
C133 N149 1.361 . A
C133 H152 0.929 . S
C134 C135 1.393 . A
C134 N150 1.348 . A
C134 H156 0.929 . S
C135 C136 1.412 . A
C135 H157 0.931 . S
C136 C137 1.416 . A
C137 C138 1.374 . A
C137 H158 0.929 . S
C138 N150 1.367 . A
C138 H159 0.930 . S
C139 C140 1.384 . A
C139 N151 1.354 . A
C139 H160 0.930 . S
C140 C141 1.413 . A
C140 H161 0.930 . S
C141 C142 1.408 . A
C142 C143 1.390 . A
C142 H162 0.932 . S
C143 N151 1.351 . A
C143 H163 0.930 1_455 S
C164 C165 1.384 . A
C164 H185 0.930 . S
C164 N188 1.358 . A
C165 C166 1.417 . A
C165 H186 0.930 . S
C166 C167 1.403 . A
C167 C168 1.386 . A
C167 H187 0.930 . S
C168 N188 1.349 . A
C168 H189 0.929 . S
Ni169 N188 2.133 . S
Ni169 N190 2.124 . S
Ni169 N191 2.107 . S
Ni169 N192 2.097 . S
C170 C171 1.397 . A
C170 C174 1.392 . A
C170 H194 0.930 . S
C171 C172 1.407 . A
C172 C173 1.389 . A
C172 H195 0.930 . S
C173 N190 1.358 . A
C173 H196 0.931 . S
C174 N190 1.361 . A
C174 H193 0.929 . S
C175 C176 1.393 . A
C175 N191 1.348 . A
C175 H197 0.929 . S
C176 C177 1.412 . A
C176 H198 0.931 . S
C177 C178 1.416 . A
C178 C179 1.374 . A
C178 H199 0.929 . S
C179 N191 1.367 . A
C179 H200 0.930 . S
C180 C181 1.384 . A
C180 N192 1.354 . A
C180 H201 0.930 . S
C181 C182 1.413 . A
C181 H202 0.930 . S
C182 C183 1.408 . A
C183 C184 1.390 . A
C183 H203 0.932 . S
C184 N192 1.351 . A
C184 H204 0.930 . S
C205 C206 1.384 . A
C205 H226 0.930 . S
C205 N229 1.358 1_545 A
C206 C207 1.417 . A
C206 H227 0.930 . S
C207 C208 1.403 . A
C208 C209 1.386 1_545 A
C208 H228 0.930 1_545 S
C209 N229 1.349 . A
C209 H230 0.929 . S
Ni210 N229 2.133 . S
Ni210 N231 2.124 . S
Ni210 N232 2.107 . S
Ni210 N233 2.097 . S
C211 C212 1.397 . A
C211 C215 1.392 . A
C211 H235 0.930 . S
C212 C213 1.407 1_565 A
C213 C214 1.389 1_545 A
C213 H236 0.930 . S
C214 N231 1.358 . A
C214 H237 0.931 1_565 S
C215 N231 1.361 . A
C215 H234 0.929 . S
C216 C217 1.393 . A
C216 N232 1.348 1_545 A
C216 H238 0.929 . S
C217 C218 1.412 . A
C217 H239 0.931 . S
C218 C219 1.416 1_545 A
C219 C220 1.374 . A
C219 H240 0.929 . S
C220 N232 1.367 . A
C220 H241 0.930 . S
C221 C222 1.384 . A
C221 N233 1.354 . A
C221 H242 0.930 . S
C222 C223 1.413 . A
C222 H243 0.930 . S
C223 C224 1.408 . A
C224 C225 1.390 . A
C224 H244 0.932 . S
C225 N233 1.351 . A
C225 H245 0.930 . S
C246 C247 1.384 . A
C246 H267 0.930 . S
C246 N270 1.358 1_655 A
C247 C248 1.417 . A
C247 H268 0.930 . S
C248 C249 1.403 . A
C249 C250 1.386 1_655 A
C249 H269 0.930 1_655 S
C250 N270 1.349 . A
C250 H271 0.929 . S
Ni251 N270 2.133 . S
Ni251 N272 2.124 . S
Ni251 N273 2.107 . S
Ni251 N274 2.097 . S
C252 C253 1.397 . A
C252 C256 1.392 . A
C252 H276 0.930 . S
C253 C254 1.407 1_455 A
C254 C255 1.389 1_655 A
C254 H277 0.930 . S
C255 N272 1.358 . A
C255 H278 0.931 1_455 S
C256 N272 1.361 . A
C256 H275 0.929 . S
C257 C258 1.393 . A
C257 N273 1.348 1_655 A
C257 H279 0.929 . S
C258 C259 1.412 . A
C258 H280 0.931 . S
C259 C260 1.416 1_655 A
C260 C261 1.374 . A
C260 H281 0.929 . S
C261 N273 1.367 . A
C261 H282 0.930 . S
C262 C263 1.384 . A
C262 N274 1.354 . A
C262 H283 0.930 . S
C263 C264 1.413 . A
C263 H284 0.930 . S
C264 C265 1.408 . A
C265 C266 1.390 . A
C265 H285 0.932 . S
C266 N274 1.351 . A
C266 H286 0.930 . S
C287 C288 1.384 . A
C287 H308 0.930 . S
C287 N311 1.358 . A
C288 C289 1.417 . A
C288 H309 0.930 . S
C289 C290 1.403 . A
C290 C291 1.386 . A
C290 H310 0.930 . S
C291 N311 1.349 . A
C291 H312 0.929 . S
Ni292 N311 2.133 . S
Ni292 N313 2.124 . S
Ni292 N314 2.107 . S
Ni292 N315 2.097 . S
C293 C294 1.397 . A
C293 C297 1.392 . A
C293 H317 0.930 . S
C294 C295 1.407 . A
C295 C296 1.389 . A
C295 H318 0.930 . S
C296 N313 1.358 . A
C296 H319 0.931 . S
C297 N313 1.361 . A
C297 H316 0.929 . S
C298 C299 1.393 . A
C298 N314 1.348 . A
C298 H320 0.929 . S
C299 C300 1.412 . A
C299 H321 0.931 . S
C300 C301 1.416 . A
C301 C302 1.374 . A
C301 H322 0.929 . S
C302 N314 1.367 . A
C302 H323 0.930 . S
C303 C304 1.384 . A
C303 N315 1.354 . A
C303 H324 0.930 . S
C304 C305 1.413 . A
C304 H325 0.930 . S
C305 C306 1.408 . A
C306 C307 1.390 . A
C306 H326 0.932 . S
C307 N315 1.351 . A
C307 H327 0.930 . S
C328 C329 1.384 . A
C328 H349 0.930 . S
C328 N352 1.358 . A
C329 C330 1.417 . A
C329 H350 0.930 . S
C330 C331 1.403 . A
C331 C332 1.386 . A
C331 H351 0.930 . S
C332 N352 1.349 . A
C332 H353 0.929 . S
Ni333 N352 2.133 1_455 S
Ni333 N354 2.124 . S
Ni333 N355 2.107 . S
Ni333 N356 2.097 1_455 S
C334 C335 1.397 . A
C334 C338 1.392 . A
C334 H358 0.930 . S
C335 C336 1.407 . A
C336 C337 1.389 . A
C336 H359 0.930 . S
C337 N354 1.358 . A
C337 H360 0.931 1_455 S
C338 N354 1.361 . A
C338 H357 0.929 . S
C339 C340 1.393 . A
C339 N355 1.348 . A
C339 H361 0.929 . S
C340 C341 1.412 . A
C340 H362 0.931 . S
C341 C342 1.416 . A
C342 C343 1.374 . A
C342 H363 0.929 . S
C343 N355 1.367 . A
C343 H364 0.930 . S
C344 C345 1.384 . A
C344 N356 1.354 . A
C344 H365 0.930 . S
C345 C346 1.413 . A
C345 H366 0.930 . S
C346 C347 1.408 . A
C347 C348 1.390 . A
C347 H367 0.932 . S
C348 N356 1.351 . A
C348 H368 0.930 1_655 S
C369 C370 1.384 . A
C369 H390 0.930 . S
C369 N393 1.358 . A
C370 C371 1.417 . A
C370 H391 0.930 . S
C371 C372 1.403 . A
C372 C373 1.386 . A
C372 H392 0.930 . S
C373 N393 1.349 . A
C373 H394 0.929 . S
Ni374 N393 2.133 . S
Ni374 N395 2.124 . S
Ni374 N396 2.107 . S
Ni374 N397 2.097 . S
C375 C376 1.397 . A
C375 C379 1.392 . A
C375 H399 0.930 . S
C376 C377 1.407 . A
C377 C378 1.389 . A
C377 H400 0.930 . S
C378 N395 1.358 . A
C378 H401 0.931 . S
C379 N395 1.361 . A
C379 H398 0.929 . S
C380 C381 1.393 . A
C380 N396 1.348 . A
C380 H402 0.929 . S
C381 C382 1.412 . A
C381 H403 0.931 . S
C382 C383 1.416 . A
C383 C384 1.374 . A
C383 H404 0.929 . S
C384 N396 1.367 . A
C384 H405 0.930 . S
C385 C386 1.384 . A
C385 N397 1.354 . A
C385 H406 0.930 . S
C386 C387 1.413 . A
C386 H407 0.930 . S
C387 C388 1.408 . A
C388 C389 1.390 . A
C388 H408 0.932 . S
C389 N397 1.351 . A
C389 H409 0.930 . S
C410 C411 1.384 . A
C410 H431 0.930 . S
C410 N434 1.358 . A
C411 C412 1.417 . A
C411 H432 0.930 . S
C412 C413 1.403 . A
C413 C414 1.386 . A
C413 H433 0.930 . S
C414 N434 1.349 . A
C414 H435 0.929 . S
Ni415 N434 2.133 1_565 S
Ni415 N436 2.124 . S
Ni415 N437 2.107 . S
Ni415 N438 2.097 1_565 S
C416 C417 1.397 . A
C416 C420 1.392 . A
C416 H440 0.930 . S
C417 C418 1.407 . A
C418 C419 1.389 . A
C418 H441 0.930 . S
C419 N436 1.358 . A
C419 H442 0.931 1_565 S
C420 N436 1.361 . A
C420 H439 0.929 . S
C421 C422 1.393 . A
C421 N437 1.348 . A
C421 H443 0.929 . S
C422 C423 1.412 . A
C422 H444 0.931 . S
C423 C424 1.416 . A
C424 C425 1.374 . A
C424 H445 0.929 . S
C425 N437 1.367 . A
C425 H446 0.930 . S
C426 C427 1.384 . A
C426 N438 1.354 . A
C426 H447 0.930 . S
C427 C428 1.413 . A
C427 H448 0.930 . S
C428 C429 1.408 . A
C429 C430 1.390 . A
C429 H449 0.932 . S
C430 N438 1.351 . A
C430 H450 0.930 1_545 S
C451 C452 1.384 . A
C451 H472 0.930 . S
C451 N475 1.358 . A
C452 C453 1.417 . A
C452 H473 0.930 . S
C453 C454 1.403 . A
C454 C455 1.386 . A
C454 H474 0.930 . S
C455 N475 1.349 . A
C455 H476 0.929 . S
Ni456 N475 2.133 1_565 S
Ni456 N477 2.124 . S
Ni456 N478 2.107 . S
Ni456 N479 2.097 1_565 S
C457 C458 1.397 . A
C457 C461 1.392 . A
C457 H481 0.930 . S
C458 C459 1.407 . A
C459 C460 1.389 . A
C459 H482 0.930 . S
C460 N477 1.358 . A
C460 H483 0.931 1_565 S
C461 N477 1.361 . A
C461 H480 0.929 . S
C462 C463 1.393 . A
C462 N478 1.348 . A
C462 H484 0.929 . S
C463 C464 1.412 . A
C463 H485 0.931 . S
C464 C465 1.416 . A
C465 C466 1.374 . A
C465 H486 0.929 . S
C466 N478 1.367 . A
C466 H487 0.930 . S
C467 C468 1.384 . A
C467 N479 1.354 . A
C467 H488 0.930 . S
C468 C469 1.413 . A
C468 H489 0.930 . S
C469 C470 1.408 . A
C470 C471 1.390 . A
C470 H490 0.932 . S
C471 N479 1.351 . A
C471 H491 0.930 1_545 S
O492 C493 1.256 . S
O492 Ni495 2.050 . S
C493 O494 1.267 . D
Ni495 O497 2.027 . S
O496 C498 1.271 . D
O497 C498 1.260 . S
O499 C500 1.256 . S
O499 Ni502 2.050 . S
C500 O501 1.267 . D
Ni502 O504 2.027 . S
O503 C505 1.271 . D
O504 C505 1.260 . S
O506 C507 1.256 . S
O506 Ni509 2.050 . S
C507 O508 1.267 . D
Ni509 O511 2.027 . S
O510 C512 1.271 . D
O511 C512 1.260 . S
O513 C514 1.256 . S
O513 Ni516 2.050 . S
C514 O515 1.267 . D
Ni516 O518 2.027 . S
O517 C519 1.271 . D
O518 C519 1.260 . S
O520 C521 1.256 . S
O520 Ni523 2.050 . S
C521 O522 1.267 . D
Ni523 O525 2.027 . S
O524 C526 1.271 . D
O525 C526 1.260 . S
O527 C528 1.256 . S
O527 Ni530 2.050 . S
C528 O529 1.267 . D
Ni530 O532 2.027 . S
O531 C533 1.271 . D
O532 C533 1.260 . S
O534 C535 1.256 . S
O534 Ni537 2.050 1_455 S
C535 O536 1.267 . D
Ni537 O539 2.027 . S
O538 C540 1.271 . D
O539 C540 1.260 . S
O541 C542 1.256 . S
O541 Ni544 2.050 . S
C542 O543 1.267 . D
Ni544 O546 2.027 . S
O545 C547 1.271 . D
O546 C547 1.260 . S
O548 C549 1.256 . S
O548 Ni551 2.050 . S
C549 O550 1.267 . D
Ni551 O553 2.027 1_545 S
O552 C554 1.271 . D
O553 C554 1.260 . S
O555 C556 1.256 . S
O555 Ni558 2.068 . S
C556 O557 1.267 . D
Ni558 O560 2.008 1_554 S
O559 C561 1.271 . D
O560 C561 1.260 . S
O562 C563 1.256 . S
O562 Ni565 2.050 . S
C563 O564 1.267 . D
Ni565 O567 2.027 1_556 S
O566 C568 1.271 . D
O567 C568 1.260 . S
O569 C570 1.256 . S
O569 Ni572 2.050 1_554 S
C570 O571 1.267 . D
Ni572 O574 2.027 . S
O573 C575 1.271 . D
O574 C575 1.260 . S
O576 C577 1.256 . S
O576 Ni579 2.050 . S
C577 O578 1.267 . D
Ni579 O581 2.027 . S
O580 C582 1.271 . D
O581 C582 1.260 . S
O583 C584 1.256 . S
O583 Ni586 2.050 . S
C584 O585 1.267 . D
Ni586 O588 2.027 . S
O587 C589 1.271 . D
O588 C589 1.260 . S
O590 C591 1.256 . S
O590 Ni593 2.050 . S
C591 O592 1.267 1_545 D
Ni593 O595 2.027 . S
O594 C596 1.271 . D
O595 C596 1.260 . S
O597 C598 1.256 . S
O597 Ni600 2.050 . S
C598 O599 1.267 . D
Ni600 O602 2.027 . S
O601 C603 1.271 . D
O602 C603 1.260 . S
O604 C605 1.256 . S
O604 Ni607 2.050 . S
C605 O606 1.267 . D
Ni607 O609 2.027 . S
O608 C610 1.271 . D
O609 C610 1.260 . S
O611 C612 1.256 . S
O611 Ni614 2.050 . S
C612 O613 1.267 . D
Ni614 O616 2.027 . S
O615 C617 1.271 . D
O616 C617 1.260 . S
C493 C18 2.412 . S
C498 C428 2.404 . S
C500 C346 2.477 . S
C505 C59 2.377 . S
C507 C182 2.132 . S
C512 C100 1.938 . S
C514 C223 2.150 . S
C519 C141 2.117 . S
C521 C264 2.115 . S
C526 C305 2.009 . S
C528 C387 2.399 . S
C533 C469 2.377 . S
C535 C7 3.523 . S
C540 C130 3.473 . S
C542 C48 3.426 . S
C547 C294 3.345 . S
C549 C89 3.459 . S
C554 C458 3.393 . S
C556 C171 2.385 . S
C561 C376 2.272 . S
C563 C417 2.298 . S
C568 C212 2.322 . S
C570 C253 2.276 . S
C575 C335 2.071 . S
C577 C341 1.698 . S
C582 C13 1.736 . S
C584 C382 1.812 . S
C589 C54 1.766 . S
C591 C218 1.369 . S
C596 C95 1.441 . S
C598 C259 1.358 . S
C603 C136 1.211 . S
C605 C177 1.410 . S
C610 C300 1.483 . S
C612 C423 1.747 . S
C617 C464 1.777 . S
