# Generated by pormake.
# Topology bor-e, (5)-cn, num edge types: 1
# Building blocks:
#     Node 0, Type 0, BuildingBlock: N482, # of connection points: 5
#     Node 1, Type 0, BuildingBlock: N482, # of connection points: 5
#     Node 2, Type 0, BuildingBlock: N482, # of connection points: 5
#     Node 3, Type 0, BuildingBlock: N482, # of connection points: 5
#     Node 4, Type 0, BuildingBlock: N482, # of connection points: 5
#     Node 5, Type 0, BuildingBlock: N482, # of connection points: 5
#     Node 6, Type 0, BuildingBlock: N482, # of connection points: 5
#     Node 7, Type 0, BuildingBlock: N482, # of connection points: 5
#     Node 8, Type 0, BuildingBlock: N482, # of connection points: 5
#     Node 9, Type 0, BuildingBlock: N482, # of connection points: 5
#     Node 10, Type 0, BuildingBlock: N482, # of connection points: 5
#     Node 11, Type 0, BuildingBlock: N482, # of connection points: 5
#     Edge 12, Type (0, 0), BuildingBlock: E63, # of connection points: 2
#     Edge 13, Type (0, 0), BuildingBlock: E63, # of connection points: 2
#     Edge 14, Type (0, 0), BuildingBlock: E63, # of connection points: 2
#     Edge 15, Type (0, 0), BuildingBlock: E63, # of connection points: 2
#     Edge 16, Type (0, 0), BuildingBlock: E63, # of connection points: 2
#     Edge 17, Type (0, 0), BuildingBlock: E63, # of connection points: 2
#     Edge 18, Type (0, 0), BuildingBlock: E63, # of connection points: 2
#     Edge 19, Type (0, 0), BuildingBlock: E63, # of connection points: 2
#     Edge 20, Type (0, 0), BuildingBlock: E63, # of connection points: 2
#     Edge 21, Type (0, 0), BuildingBlock: E63, # of connection points: 2
#     Edge 22, Type (0, 0), BuildingBlock: E63, # of connection points: 2
#     Edge 23, Type (0, 0), BuildingBlock: E63, # of connection points: 2
#     Edge 24, Type (0, 0), BuildingBlock: E63, # of connection points: 2
#     Edge 25, Type (0, 0), BuildingBlock: E63, # of connection points: 2
#     Edge 26, Type (0, 0), BuildingBlock: E63, # of connection points: 2
#     Edge 27, Type (0, 0), BuildingBlock: E63, # of connection points: 2
#     Edge 28, Type (0, 0), BuildingBlock: E63, # of connection points: 2
#     Edge 29, Type (0, 0), BuildingBlock: E63, # of connection points: 2
#     Edge 30, Type (0, 0), BuildingBlock: E63, # of connection points: 2
#     Edge 31, Type (0, 0), BuildingBlock: E63, # of connection points: 2
#     Edge 32, Type (0, 0), BuildingBlock: E63, # of connection points: 2
#     Edge 33, Type (0, 0), BuildingBlock: E63, # of connection points: 2
#     Edge 34, Type (0, 0), BuildingBlock: E63, # of connection points: 2
#     Edge 35, Type (0, 0), BuildingBlock: E63, # of connection points: 2
#     Edge 36, Type (0, 0), BuildingBlock: E63, # of connection points: 2
#     Edge 37, Type (0, 0), BuildingBlock: E63, # of connection points: 2
#     Edge 38, Type (0, 0), BuildingBlock: E63, # of connection points: 2
#     Edge 39, Type (0, 0), BuildingBlock: E63, # of connection points: 2
#     Edge 40, Type (0, 0), BuildingBlock: E63, # of connection points: 2
#     Edge 41, Type (0, 0), BuildingBlock: E63, # of connection points: 2
# Relax obj value: 0.752
# Max RMSD: 0.335
# Mean RMSD: 0.335
data_bor-e+N482+E63
_symmetry_space_group_name_H-M    P1
_symmetry_Int_Tables_number       1
_symmetry_cell_setting            triclinic
loop_
_symmetry_equiv_pos_as_xyz
'x, y, z'
_cell_length_a     27.641
_cell_length_b     27.641
_cell_length_c     27.641
_cell_angle_alpha  90.000
_cell_angle_beta   90.000
_cell_angle_gamma  90.000
loop_
_atom_site_label
_atom_site_type_symbol
_atom_site_fract_x
_atom_site_fract_y
_atom_site_fract_z
_atom_type_partial_charge
Ni0 Ni 0.40351 0.91732 0.11673 0.00000
Ni1 Ni 0.33830 0.83370 0.06682 0.00000
C2 C 0.42460 0.82536 0.03599 0.00000
C3 C 0.29257 0.76156 0.07558 0.00000
O4 O 0.39559 0.80389 0.01113 0.00000
O5 O 0.27320 0.79608 0.05395 0.00000
O6 O 0.33379 0.76806 0.09521 0.00000
O7 O 0.32290 0.89172 0.03138 0.00000
O8 O 0.41324 0.84794 0.07158 0.00000
C9 C 0.34036 0.93355 0.03444 0.00000
C10 C 0.32810 0.90498 0.16799 0.00000
C11 C 0.47575 0.93911 0.15771 0.00000
O12 O 0.34854 0.94274 0.17675 0.00000
O13 O 0.46425 0.96325 0.12140 0.00000
O14 O 0.45069 0.90190 0.16842 0.00000
O15 O 0.37166 0.94909 0.06347 0.00000
O16 O 0.34255 0.87654 0.13819 0.00000
Ni17 Ni 0.88327 0.59649 0.91732 0.00000
Ni18 Ni 0.93318 0.66170 0.83370 0.00000
C19 C 0.96401 0.57540 0.82536 0.00000
C20 C 0.92442 0.70743 0.76156 0.00000
O21 O 0.98887 0.60442 0.80389 0.00000
O22 O 0.94605 0.72680 0.79607 0.00000
O23 O 0.90479 0.66621 0.76806 0.00000
O24 O 0.96862 0.67710 0.89172 0.00000
O25 O 0.92842 0.58676 0.84794 0.00000
C26 C 0.96556 0.65964 0.93355 0.00000
C27 C 0.83201 0.67190 0.90498 0.00000
C28 C 0.84229 0.52425 0.93911 0.00000
O29 O 0.82325 0.65146 0.94274 0.00000
O30 O 0.87860 0.53576 0.96325 0.00000
O31 O 0.83158 0.54931 0.90190 0.00000
O32 O 0.93653 0.62834 0.94909 0.00000
O33 O 0.86181 0.65745 0.87654 0.00000
Ni34 Ni 0.59649 0.91732 0.88327 0.00000
Ni35 Ni 0.66170 0.83370 0.93318 0.00000
C36 C 0.57540 0.82536 0.96401 0.00000
C37 C 0.70743 0.76156 0.92442 0.00000
O38 O 0.60441 0.80389 0.98887 0.00000
O39 O 0.72680 0.79608 0.94605 0.00000
O40 O 0.66621 0.76806 0.90479 0.00000
O41 O 0.67710 0.89172 0.96862 0.00000
O42 O 0.58676 0.84794 0.92842 0.00000
C43 C 0.65964 0.93355 0.96556 0.00000
C44 C 0.67190 0.90498 0.83201 0.00000
C45 C 0.52425 0.93911 0.84229 0.00000
O46 O 0.65146 0.94274 0.82325 0.00000
O47 O 0.53575 0.96325 0.87860 0.00000
O48 O 0.54931 0.90190 0.83158 0.00000
O49 O 0.62834 0.94909 0.93653 0.00000
O50 O 0.65745 0.87654 0.86181 0.00000
Ni51 Ni 0.91732 0.11673 0.40351 0.00000
Ni52 Ni 0.83370 0.06683 0.33830 0.00000
C53 C 0.82536 0.03599 0.42460 0.00000
C54 C 0.76156 0.07558 0.29257 0.00000
O55 O 0.80389 0.01113 0.39558 0.00000
O56 O 0.79607 0.05395 0.27320 0.00000
O57 O 0.76806 0.09521 0.33379 0.00000
O58 O 0.89172 0.03138 0.32290 0.00000
O59 O 0.84794 0.07158 0.41324 0.00000
C60 C 0.93355 0.03444 0.34036 0.00000
C61 C 0.90498 0.16799 0.32810 0.00000
C62 C 0.93911 0.15771 0.47575 0.00000
O63 O 0.94274 0.17675 0.34854 0.00000
O64 O 0.96325 0.12140 0.46424 0.00000
O65 O 0.90190 0.16842 0.45069 0.00000
O66 O 0.94909 0.06347 0.37166 0.00000
O67 O 0.87654 0.13819 0.34255 0.00000
Ni68 Ni 0.08268 0.88327 0.40351 0.00000
Ni69 Ni 0.16630 0.93317 0.33830 0.00000
C70 C 0.17464 0.96401 0.42460 0.00000
C71 C 0.23844 0.92442 0.29257 0.00000
O72 O 0.19611 0.98887 0.39558 0.00000
O73 O 0.20393 0.94605 0.27320 0.00000
O74 O 0.23194 0.90479 0.33379 0.00000
O75 O 0.10828 0.96862 0.32290 0.00000
O76 O 0.15206 0.92842 0.41324 0.00000
C77 C 0.06645 0.96556 0.34036 0.00000
C78 C 0.09502 0.83201 0.32810 0.00000
C79 C 0.06089 0.84229 0.47575 0.00000
O80 O 0.05726 0.82325 0.34854 0.00000
O81 O 0.03675 0.87860 0.46424 0.00000
O82 O 0.09810 0.83158 0.45069 0.00000
O83 O 0.05091 0.93653 0.37166 0.00000
O84 O 0.12346 0.86181 0.34255 0.00000
Ni85 Ni 0.91732 0.88327 0.59649 0.00000
Ni86 Ni 0.83370 0.93317 0.66170 0.00000
C87 C 0.82536 0.96401 0.57540 0.00000
C88 C 0.76156 0.92442 0.70743 0.00000
O89 O 0.80389 0.98887 0.60442 0.00000
O90 O 0.79607 0.94605 0.72680 0.00000
O91 O 0.76806 0.90479 0.66621 0.00000
O92 O 0.89172 0.96862 0.67710 0.00000
O93 O 0.84794 0.92842 0.58676 0.00000
C94 C 0.93355 0.96556 0.65964 0.00000
C95 C 0.90498 0.83201 0.67190 0.00000
C96 C 0.93911 0.84229 0.52425 0.00000
O97 O 0.94274 0.82325 0.65146 0.00000
O98 O 0.96325 0.87860 0.53576 0.00000
O99 O 0.90190 0.83158 0.54931 0.00000
O100 O 0.94909 0.93653 0.62834 0.00000
O101 O 0.87654 0.86181 0.65745 0.00000
Ni102 Ni 0.08268 0.11673 0.59649 0.00000
Ni103 Ni 0.16630 0.06683 0.66170 0.00000
C104 C 0.17464 0.03599 0.57540 0.00000
C105 C 0.23844 0.07558 0.70743 0.00000
O106 O 0.19611 0.01113 0.60442 0.00000
O107 O 0.20393 0.05395 0.72680 0.00000
O108 O 0.23194 0.09521 0.66621 0.00000
O109 O 0.10828 0.03138 0.67710 0.00000
O110 O 0.15206 0.07158 0.58676 0.00000
C111 C 0.06645 0.03444 0.65964 0.00000
C112 C 0.09502 0.16799 0.67190 0.00000
C113 C 0.06089 0.15771 0.52425 0.00000
O114 O 0.05726 0.17675 0.65146 0.00000
O115 O 0.03675 0.12140 0.53576 0.00000
O116 O 0.09810 0.16842 0.54931 0.00000
O117 O 0.05091 0.06347 0.62834 0.00000
O118 O 0.12346 0.13819 0.65745 0.00000
Ni119 Ni 0.59649 0.08268 0.11673 0.00000
Ni120 Ni 0.66170 0.16630 0.06682 0.00000
C121 C 0.57540 0.17464 0.03599 0.00000
C122 C 0.70743 0.23844 0.07558 0.00000
O123 O 0.60441 0.19611 0.01113 0.00000
O124 O 0.72680 0.20392 0.05395 0.00000
O125 O 0.66621 0.23194 0.09521 0.00000
O126 O 0.67710 0.10828 0.03138 0.00000
O127 O 0.58676 0.15206 0.07158 0.00000
C128 C 0.65964 0.06645 0.03444 0.00000
C129 C 0.67190 0.09502 0.16799 0.00000
C130 C 0.52425 0.06089 0.15771 0.00000
O131 O 0.65146 0.05726 0.17675 0.00000
O132 O 0.53575 0.03675 0.12140 0.00000
O133 O 0.54931 0.09810 0.16842 0.00000
O134 O 0.62834 0.05091 0.06347 0.00000
O135 O 0.65745 0.12346 0.13819 0.00000
Ni136 Ni 0.11673 0.40351 0.91732 0.00000
Ni137 Ni 0.06683 0.33830 0.83370 0.00000
C138 C 0.03599 0.42460 0.82536 0.00000
C139 C 0.07558 0.29257 0.76156 0.00000
O140 O 0.01113 0.39558 0.80389 0.00000
O141 O 0.05395 0.27320 0.79607 0.00000
O142 O 0.09521 0.33379 0.76806 0.00000
O143 O 0.03138 0.32290 0.89172 0.00000
O144 O 0.07158 0.41324 0.84794 0.00000
C145 C 0.03444 0.34036 0.93355 0.00000
C146 C 0.16799 0.32810 0.90498 0.00000
C147 C 0.15771 0.47575 0.93911 0.00000
O148 O 0.17675 0.34854 0.94274 0.00000
O149 O 0.12140 0.46424 0.96325 0.00000
O150 O 0.16842 0.45069 0.90190 0.00000
O151 O 0.06347 0.37166 0.94909 0.00000
O152 O 0.13819 0.34255 0.87654 0.00000
Ni153 Ni 0.88327 0.40351 0.08268 0.00000
Ni154 Ni 0.93318 0.33830 0.16630 0.00000
C155 C 0.96401 0.42460 0.17464 0.00000
C156 C 0.92442 0.29257 0.23844 0.00000
O157 O 0.98887 0.39558 0.19611 0.00000
O158 O 0.94605 0.27320 0.20393 0.00000
O159 O 0.90479 0.33379 0.23194 0.00000
O160 O 0.96862 0.32290 0.10828 0.00000
O161 O 0.92842 0.41324 0.15206 0.00000
C162 C 0.96556 0.34036 0.06645 0.00000
C163 C 0.83201 0.32810 0.09502 0.00000
C164 C 0.84229 0.47575 0.06089 0.00000
O165 O 0.82325 0.34854 0.05726 0.00000
O166 O 0.87860 0.46424 0.03675 0.00000
O167 O 0.83158 0.45069 0.09810 0.00000
O168 O 0.93653 0.37166 0.05091 0.00000
O169 O 0.86181 0.34255 0.12346 0.00000
Ni170 Ni 0.40351 0.08268 0.88327 0.00000
Ni171 Ni 0.33830 0.16630 0.93318 0.00000
C172 C 0.42460 0.17464 0.96401 0.00000
C173 C 0.29257 0.23844 0.92442 0.00000
O174 O 0.39558 0.19611 0.98887 0.00000
O175 O 0.27320 0.20392 0.94605 0.00000
O176 O 0.33379 0.23194 0.90479 0.00000
O177 O 0.32290 0.10828 0.96862 0.00000
O178 O 0.41324 0.15206 0.92842 0.00000
C179 C 0.34036 0.06645 0.96556 0.00000
C180 C 0.32810 0.09502 0.83201 0.00000
C181 C 0.47575 0.06089 0.84229 0.00000
O182 O 0.34854 0.05726 0.82325 0.00000
O183 O 0.46424 0.03675 0.87860 0.00000
O184 O 0.45069 0.09810 0.83158 0.00000
O185 O 0.37166 0.05091 0.93653 0.00000
O186 O 0.34255 0.12346 0.86181 0.00000
Ni187 Ni 0.11673 0.59649 0.08268 0.00000
Ni188 Ni 0.06682 0.66170 0.16630 0.00000
C189 C 0.03599 0.57540 0.17464 0.00000
C190 C 0.07558 0.70743 0.23844 0.00000
O191 O 0.01113 0.60442 0.19611 0.00000
O192 O 0.05395 0.72680 0.20393 0.00000
O193 O 0.09521 0.66621 0.23194 0.00000
O194 O 0.03138 0.67710 0.10828 0.00000
O195 O 0.07158 0.58676 0.15206 0.00000
C196 C 0.03444 0.65964 0.06645 0.00000
C197 C 0.16799 0.67190 0.09502 0.00000
C198 C 0.15771 0.52425 0.06089 0.00000
O199 O 0.17675 0.65146 0.05726 0.00000
O200 O 0.12140 0.53576 0.03675 0.00000
O201 O 0.16842 0.54931 0.09810 0.00000
O202 O 0.06347 0.62834 0.05091 0.00000
O203 O 0.13819 0.65745 0.12346 0.00000
C204 C 0.26063 0.93981 0.17024 0.00000
C205 C 0.29680 0.91111 0.19016 0.00000
C206 C 0.29528 0.90167 0.23885 0.00000
C207 C 0.25816 0.92107 0.26623 0.00000
C208 C 0.22319 0.94809 0.24335 0.00000
H209 H 0.26202 0.94683 0.13738 0.00000
H210 H 0.31890 0.88250 0.25326 0.00000
H211 H 0.19781 0.96014 0.26186 0.00000
N212 N 0.22368 0.95788 0.19617 0.00000
C213 C 0.95448 0.80112 0.66637 0.00000
C214 C 0.90883 0.80256 0.68741 0.00000
C215 C 0.89577 0.76570 0.71796 0.00000
C216 C 0.92821 0.72858 0.72653 0.00000
C217 C 0.97309 0.73065 0.70514 0.00000
H218 H 0.96310 0.82570 0.64510 0.00000
H219 H 0.86551 0.76567 0.73270 0.00000
H220 H 0.99505 0.70606 0.71190 0.00000
N221 N 0.98681 0.76593 0.67532 0.00000
C222 C 0.64186 0.92129 0.78388 0.00000
C223 C 0.68459 0.89990 0.79955 0.00000
C224 C 0.72388 0.90075 0.76926 0.00000
C225 C 0.71955 0.92255 0.72443 0.00000
C226 C 0.67626 0.94389 0.71232 0.00000
H227 H 0.61500 0.92010 0.80408 0.00000
H228 H 0.75304 0.88686 0.77873 0.00000
H229 H 0.67397 0.95936 0.68252 0.00000
N230 N 0.63749 0.94366 0.74093 0.00000
C231 C 0.75523 0.11604 0.17454 0.00000
C232 C 0.71006 0.09966 0.18934 0.00000
C233 C 0.70388 0.08742 0.23703 0.00000
C234 C 0.74261 0.09161 0.26843 0.00000
C235 C 0.78572 0.10929 0.25096 0.00000
H236 H 0.75967 0.12366 0.14208 0.00000
H237 H 0.67405 0.07644 0.24810 0.00000
H238 H 0.81129 0.11295 0.27253 0.00000
N239 N 0.79284 0.12146 0.20488 0.00000
C240 C 0.16237 0.79528 0.29313 0.00000
C241 C 0.11317 0.80501 0.29675 0.00000
C242 C 0.08108 0.76897 0.28518 0.00000
C243 C 0.09872 0.72459 0.27024 0.00000
C244 C 0.14799 0.71770 0.26885 0.00000
H245 H 0.18414 0.81990 0.30027 0.00000
H246 H 0.04792 0.77430 0.28734 0.00000
H247 H 0.15953 0.68743 0.25974 0.00000
N248 N 0.18003 0.75197 0.27985 0.00000
C249 C 0.02548 0.27035 0.70973 0.00000
C250 C 0.07105 0.27176 0.73093 0.00000
C251 C 0.10277 0.23488 0.72112 0.00000
C252 C 0.08830 0.19778 0.69082 0.00000
C253 C 0.04295 0.19989 0.67043 0.00000
H254 H 0.00369 0.29495 0.71692 0.00000
H255 H 0.13359 0.23483 0.73466 0.00000
H256 H 0.03389 0.17531 0.64931 0.00000
N257 N 0.01136 0.23518 0.67927 0.00000
C258 C 0.95241 0.17397 0.27509 0.00000
C259 C 0.91274 0.19146 0.30056 0.00000
C260 C 0.89873 0.23847 0.29303 0.00000
C261 C 0.92453 0.26665 0.26073 0.00000
C262 C 0.96260 0.24605 0.23616 0.00000
H263 H 0.96238 0.14235 0.28070 0.00000
H264 H 0.87225 0.25121 0.30944 0.00000
H265 H 0.97912 0.26496 0.21375 0.00000
N266 N 0.97706 0.20056 0.24269 0.00000
C267 C 0.25611 0.06607 0.83054 0.00000
C268 C 0.29550 0.08981 0.81022 0.00000
C269 C 0.29591 0.09705 0.76113 0.00000
C270 C 0.25746 0.08042 0.73378 0.00000
C271 C 0.21938 0.05836 0.75702 0.00000
H272 H 0.25612 0.06049 0.86371 0.00000
H273 H 0.32170 0.11292 0.74644 0.00000
H274 H 0.19320 0.04820 0.73847 0.00000
N275 N 0.21794 0.05080 0.80458 0.00000
C276 C 0.17060 0.73766 0.05827 0.00000
C277 C 0.19031 0.70272 0.08860 0.00000
C278 C 0.23883 0.70497 0.09875 0.00000
C279 C 0.26625 0.74155 0.07843 0.00000
C280 C 0.24356 0.77533 0.04978 0.00000
H281 H 0.13786 0.73575 0.05079 0.00000
H282 H 0.25309 0.68219 0.11902 0.00000
H283 H 0.26208 0.80039 0.03708 0.00000
N284 N 0.19655 0.77411 0.03926 0.00000
C285 C 0.17441 0.27652 0.95330 0.00000
C286 C 0.19159 0.30091 0.91282 0.00000
C287 C 0.23841 0.29280 0.89851 0.00000
C288 C 0.26671 0.26100 0.92480 0.00000
C289 C 0.24641 0.23749 0.96368 0.00000
H290 H 0.14292 0.28253 0.96346 0.00000
H291 H 0.25095 0.30848 0.87150 0.00000
H292 H 0.26539 0.21540 0.98055 0.00000
N293 N 0.20110 0.24460 0.97846 0.00000
C294 C 0.78259 0.67411 0.84503 0.00000
C295 C 0.80175 0.69611 0.88598 0.00000
C296 C 0.77096 0.72073 0.91612 0.00000
C297 C 0.72231 0.72293 0.90465 0.00000
C298 C 0.70623 0.69909 0.86403 0.00000
H299 H 0.80352 0.65803 0.82419 0.00000
H300 H 0.78265 0.73575 0.94388 0.00000
H301 H 0.67330 0.69991 0.85714 0.00000
N302 N 0.73522 0.67491 0.83408 0.00000
C303 C 0.70546 0.32614 0.06885 0.00000
C304 C 0.72247 0.27957 0.07720 0.00000
C305 C 0.76919 0.27400 0.09298 0.00000
C306 C 0.79755 0.31466 0.09980 0.00000
C307 C 0.77741 0.35946 0.09182 0.00000
H308 H 0.67404 0.32993 0.05746 0.00000
H309 H 0.78162 0.24331 0.09900 0.00000
H310 H 0.79643 0.38664 0.09747 0.00000
N311 N 0.73220 0.36602 0.07649 0.00000
C312 C 0.56243 0.86176 0.02778 0.00000
C313 C 0.54513 0.83129 0.99171 0.00000
C314 C 0.49694 0.81946 0.99195 0.00000
C315 C 0.46753 0.83799 0.02793 0.00000
C316 C 0.48742 0.86886 0.06152 0.00000
H317 H 0.59522 0.86923 0.02808 0.00000
H318 H 0.48423 0.79923 0.96824 0.00000
H319 H 0.46717 0.88196 0.08499 0.00000
N320 N 0.53404 0.88102 0.06224 0.00000
C321 C 0.82940 0.56602 0.96190 0.00000
C322 C 0.83499 0.51627 0.95716 0.00000
C323 C 0.83381 0.48839 0.99819 0.00000
C324 C 0.82733 0.51065 0.04253 0.00000
C325 C 0.82088 0.55998 0.04379 0.00000
H326 H 0.83092 0.58503 0.93420 0.00000
H327 H 0.83732 0.45498 0.99622 0.00000
H328 H 0.81554 0.57453 0.07366 0.00000
N329 N 0.82186 0.58801 0.00461 0.00000
C330 C 0.04654 0.18968 0.44323 0.00000
C331 C 0.04451 0.17753 0.49198 0.00000
C332 C 0.00010 0.16772 0.51202 0.00000
C333 C 0.95935 0.17043 0.48323 0.00000
C334 C 0.96480 0.18155 0.43503 0.00000
H335 H 0.07647 0.19704 0.42978 0.00000
H336 H 0.99763 0.15936 0.54452 0.00000
H337 H 0.93725 0.18230 0.41570 0.00000
N338 N 0.00731 0.19126 0.41454 0.00000
C339 C 0.11484 0.99568 0.55021 0.00000
C340 C 0.16199 0.01174 0.54333 0.00000
C341 C 0.18381 0.00283 0.49966 0.00000
C342 C 0.15834 0.97819 0.46434 0.00000
C343 C 0.11139 0.96465 0.47379 0.00000
H344 H 0.10027 0.00105 0.58004 0.00000
H345 H 0.21530 0.01322 0.49389 0.00000
H346 H 0.09419 0.94900 0.44947 0.00000
N347 N 0.08924 0.97277 0.51580 0.00000
C348 C 0.95339 0.84826 0.44221 0.00000
C349 C 0.95529 0.83031 0.48915 0.00000
C350 C 0.99990 0.82518 0.51065 0.00000
C351 C 0.04077 0.83779 0.48496 0.00000
C352 C 0.03548 0.85640 0.43911 0.00000
H353 H 0.92336 0.85107 0.42733 0.00000
H354 H 0.00220 0.81338 0.54207 0.00000
H355 H 0.06321 0.86573 0.42248 0.00000
N356 N 0.99287 0.86180 0.41727 0.00000
C357 C 0.76525 0.02721 0.46621 0.00000
C358 C 0.81546 0.02569 0.46394 0.00000
C359 C 0.83996 0.00135 0.49957 0.00000
C360 C 0.81401 0.97949 0.53634 0.00000
C361 C 0.76431 0.98175 0.53512 0.00000
H362 H 0.74864 0.04430 0.44249 0.00000
H363 H 0.87357 0.99990 0.49901 0.00000
H364 H 0.74711 0.96609 0.55943 0.00000
N365 N 0.73951 0.00510 0.50104 0.00000
C366 C 0.43433 0.19057 0.03401 0.00000
C367 C 0.45587 0.18011 0.98979 0.00000
C368 C 0.50466 0.17110 0.98888 0.00000
C369 C 0.53052 0.17292 0.03167 0.00000
C370 C 0.50609 0.18236 0.07398 0.00000
H371 H 0.40140 0.19740 0.03457 0.00000
H372 H 0.52013 0.16387 0.95987 0.00000
H373 H 0.52359 0.18251 0.10272 0.00000
N374 N 0.45877 0.19126 0.07603 0.00000
C375 C 0.10664 0.51312 0.04173 0.00000
C376 C 0.15535 0.50082 0.04390 0.00000
C377 C 0.18028 0.49560 0.00131 0.00000
C378 C 0.15616 0.50255 0.95802 0.00000
C379 C 0.10823 0.51585 0.95924 0.00000
H380 H 0.08953 0.51596 0.07055 0.00000
H381 H 0.21294 0.48750 0.00155 0.00000
H382 H 0.09256 0.52144 0.92999 0.00000
N383 N 0.08306 0.52118 0.99990 0.00000
C384 C 0.92597 0.49061 0.15644 0.00000
C385 C 0.96936 0.46651 0.16454 0.00000
C386 C 0.01022 0.49354 0.17243 0.00000
C387 C 0.00684 0.54346 0.17185 0.00000
C388 C 0.96222 0.56431 0.16475 0.00000
H389 H 0.89839 0.47234 0.15037 0.00000
H390 H 0.03979 0.47850 0.17808 0.00000
H391 H 0.96010 0.59789 0.16543 0.00000
N392 N 0.92192 0.53906 0.15699 0.00000
C393 C 0.96400 0.43329 0.81979 0.00000
C394 C 0.00916 0.45532 0.82190 0.00000
C395 C 0.01112 0.50465 0.82688 0.00000
C396 C 0.96838 0.53055 0.82943 0.00000
C397 C 0.92528 0.50570 0.82827 0.00000
H398 H 0.96262 0.39994 0.81569 0.00000
H399 H 0.04078 0.52047 0.82851 0.00000
H400 H 0.89673 0.52330 0.83103 0.00000
N401 N 0.92220 0.45785 0.82346 0.00000
C402 C 0.44863 0.96090 0.12853 0.00000
C403 C 0.48969 0.95675 0.15726 0.00000
C404 C 0.51061 0.99826 0.17462 0.00000
C405 C 0.49034 0.04247 0.16286 0.00000
C406 C 0.44896 0.04318 0.13521 0.00000
H407 H 0.43484 0.93283 0.11614 0.00000
H408 H 0.53806 0.99670 0.19404 0.00000
H409 H 0.43499 0.07301 0.12832 0.00000
N410 N 0.42783 0.00352 0.11782 0.00000
C411 C 0.44046 0.95327 0.82174 0.00000
C412 C 0.49061 0.95540 0.82466 0.00000
C413 C 0.51206 0.99990 0.83004 0.00000
C414 C 0.48322 0.04065 0.83217 0.00000
C415 C 0.43380 0.03512 0.83021 0.00000
H416 H 0.42592 0.92326 0.81737 0.00000
H417 H 0.54555 0.00244 0.83222 0.00000
H418 H 0.41464 0.06267 0.83269 0.00000
N419 N 0.41192 0.99251 0.82499 0.00000
C420 C 0.26683 0.95392 0.99402 0.00000
C421 C 0.31596 0.95564 0.00459 0.00000
C422 C 0.33928 0.99990 0.00123 0.00000
C423 C 0.31329 0.03976 0.98738 0.00000
C424 C 0.26450 0.03501 0.97876 0.00000
H425 H 0.25114 0.92421 0.99558 0.00000
H426 H 0.37213 0.00169 0.00818 0.00000
H427 H 0.24710 0.06259 0.97045 0.00000
N428 N 0.24086 0.99313 0.98171 0.00000
C429 C 0.92934 0.68898 0.97641 0.00000
C430 C 0.97649 0.68036 0.96120 0.00000
C431 C 0.01127 0.67223 0.99564 0.00000
C432 C 0.99831 0.67307 0.04396 0.00000
C433 C 0.95057 0.68068 0.05576 0.00000
H434 H 0.90588 0.69521 0.95314 0.00000
H435 H 0.04314 0.66624 0.98662 0.00000
H436 H 0.94199 0.68018 0.08830 0.00000
N437 N 0.91599 0.68869 0.02317 0.00000
C438 C 0.67228 0.05864 0.95127 0.00000
C439 C 0.66825 0.04579 0.99990 0.00000
C440 C 0.67021 0.99765 0.01159 0.00000
C441 C 0.67590 0.96383 0.97516 0.00000
C442 C 0.68081 0.97981 0.92828 0.00000
H443 H 0.67023 0.09120 0.94310 0.00000
H444 H 0.66773 0.98788 0.04371 0.00000
H445 H 0.68564 0.95688 0.90413 0.00000
N446 N 0.67905 0.02627 0.91563 0.00000
C447 C 0.05855 0.04843 0.33352 0.00000
C448 C 0.04566 0.99990 0.33294 0.00000
C449 C 0.99760 0.98823 0.32870 0.00000
C450 C 0.96390 0.02507 0.32537 0.00000
C451 C 0.97994 0.07217 0.32502 0.00000
H452 H 0.09104 0.05635 0.33713 0.00000
H453 H 0.98781 0.95603 0.32808 0.00000
H454 H 0.95712 0.09669 0.32175 0.00000
N455 N 0.02633 0.08457 0.32909 0.00000
C456 C 0.02310 0.07230 0.66552 0.00000
C457 C 0.03825 0.02541 0.67559 0.00000
C458 C 0.00418 0.98935 0.67666 0.00000
C459 C 0.95628 0.00010 0.66794 0.00000
C460 C 0.94465 0.04804 0.65707 0.00000
H461 H 0.04605 0.09689 0.66549 0.00000
H462 H 0.01317 0.95758 0.68318 0.00000
H463 H 0.91250 0.05529 0.65025 0.00000
N464 N 0.97689 0.08383 0.65576 0.00000
C465 C 0.95868 0.35755 0.94354 0.00000
C466 C 0.00325 0.33744 0.95525 0.00000
C467 C 0.01140 0.32393 0.00229 0.00000
C468 C 0.97527 0.33092 0.03620 0.00000
C469 C 0.93181 0.34997 0.02123 0.00000
H470 H 0.95337 0.36739 0.91182 0.00000
H471 H 0.04081 0.31025 0.01127 0.00000
H472 H 0.90736 0.35361 0.04407 0.00000
N473 N 0.92282 0.36343 0.97584 0.00000
loop_
_geom_bond_atom_site_label_1
_geom_bond_atom_site_label_2
_geom_bond_distance
_geom_bond_site_symmetry_2
_ccdc_geom_bond_type
Ni0 O8 2.304 . S
Ni0 O12 2.357 . S
Ni0 O13 2.109 . S
Ni0 O14 1.981 . S
Ni0 O15 1.927 . S
Ni0 O16 2.112 . S
Ni1 O4 2.357 . S
Ni1 O5 2.109 . S
Ni1 O6 1.981 . S
Ni1 O7 1.927 . S
Ni1 O8 2.112 . S
Ni1 O16 2.304 . S
C2 O4 1.211 . D
C2 O8 1.207 . S
C3 O5 1.247 . A
C3 O6 1.275 . A
O7 C9 1.256 . A
C9 O15 1.256 . A
C10 O12 1.211 . D
C10 O16 1.207 . S
C11 O13 1.247 . A
C11 O14 1.275 . A
Ni17 O25 2.304 . S
Ni17 O29 2.357 . S
Ni17 O30 2.109 . S
Ni17 O31 1.981 . S
Ni17 O32 1.927 . S
Ni17 O33 2.112 . S
Ni18 O21 2.357 . S
Ni18 O22 2.109 . S
Ni18 O23 1.981 . S
Ni18 O24 1.927 . S
Ni18 O25 2.112 . S
Ni18 O33 2.304 . S
C19 O21 1.211 . D
C19 O25 1.207 . S
C20 O22 1.247 . A
C20 O23 1.275 . A
O24 C26 1.256 . A
C26 O32 1.256 . A
C27 O29 1.211 . D
C27 O33 1.207 . S
C28 O30 1.247 . A
C28 O31 1.275 . A
Ni34 O42 2.304 . S
Ni34 O46 2.357 . S
Ni34 O47 2.109 . S
Ni34 O48 1.981 . S
Ni34 O49 1.927 . S
Ni34 O50 2.112 . S
Ni35 O38 2.357 . S
Ni35 O39 2.109 . S
Ni35 O40 1.981 . S
Ni35 O41 1.927 . S
Ni35 O42 2.112 . S
Ni35 O50 2.304 . S
C36 O38 1.211 . D
C36 O42 1.207 . S
C37 O39 1.247 . A
C37 O40 1.275 . A
O41 C43 1.256 . A
C43 O49 1.256 . A
C44 O46 1.211 . D
C44 O50 1.207 . S
C45 O47 1.247 . A
C45 O48 1.275 . A
Ni51 O59 2.304 . S
Ni51 O63 2.357 . S
Ni51 O64 2.109 . S
Ni51 O65 1.981 . S
Ni51 O66 1.927 . S
Ni51 O67 2.112 . S
Ni52 O55 2.357 . S
Ni52 O56 2.109 . S
Ni52 O57 1.981 . S
Ni52 O58 1.927 . S
Ni52 O59 2.112 . S
Ni52 O67 2.304 . S
C53 O55 1.211 . D
C53 O59 1.207 . S
C54 O56 1.247 . A
C54 O57 1.275 . A
O58 C60 1.256 . A
C60 O66 1.256 . A
C61 O63 1.211 . D
C61 O67 1.207 . S
C62 O64 1.247 . A
C62 O65 1.275 . A
Ni68 O76 2.304 . S
Ni68 O80 2.357 . S
Ni68 O81 2.109 . S
Ni68 O82 1.981 . S
Ni68 O83 1.927 . S
Ni68 O84 2.112 . S
Ni69 O72 2.357 . S
Ni69 O73 2.109 . S
Ni69 O74 1.981 . S
Ni69 O75 1.927 . S
Ni69 O76 2.112 . S
Ni69 O84 2.304 . S
C70 O72 1.211 . D
C70 O76 1.207 . S
C71 O73 1.247 . A
C71 O74 1.275 . A
O75 C77 1.256 . A
C77 O83 1.256 . A
C78 O80 1.211 . D
C78 O84 1.207 . S
C79 O81 1.247 . A
C79 O82 1.275 . A
Ni85 O93 2.304 . S
Ni85 O97 2.357 . S
Ni85 O98 2.109 . S
Ni85 O99 1.981 . S
Ni85 O100 1.927 . S
Ni85 O101 2.112 . S
Ni86 O89 2.357 . S
Ni86 O90 2.109 . S
Ni86 O91 1.981 . S
Ni86 O92 1.927 . S
Ni86 O93 2.112 . S
Ni86 O101 2.304 . S
C87 O89 1.211 . D
C87 O93 1.207 . S
C88 O90 1.247 . A
C88 O91 1.275 . A
O92 C94 1.256 . A
C94 O100 1.256 . A
C95 O97 1.211 . D
C95 O101 1.207 . S
C96 O98 1.247 . A
C96 O99 1.275 . A
Ni102 O110 2.304 . S
Ni102 O114 2.357 . S
Ni102 O115 2.109 . S
Ni102 O116 1.981 . S
Ni102 O117 1.927 . S
Ni102 O118 2.112 . S
Ni103 O106 2.357 . S
Ni103 O107 2.109 . S
Ni103 O108 1.981 . S
Ni103 O109 1.927 . S
Ni103 O110 2.112 . S
Ni103 O118 2.304 . S
C104 O106 1.211 . D
C104 O110 1.207 . S
C105 O107 1.247 . A
C105 O108 1.275 . A
O109 C111 1.256 . A
C111 O117 1.256 . A
C112 O114 1.211 . D
C112 O118 1.207 . S
C113 O115 1.247 . A
C113 O116 1.275 . A
Ni119 O127 2.304 . S
Ni119 O131 2.357 . S
Ni119 O132 2.109 . S
Ni119 O133 1.981 . S
Ni119 O134 1.927 . S
Ni119 O135 2.112 . S
Ni120 O123 2.357 . S
Ni120 O124 2.109 . S
Ni120 O125 1.981 . S
Ni120 O126 1.927 . S
Ni120 O127 2.112 . S
Ni120 O135 2.304 . S
C121 O123 1.211 . D
C121 O127 1.207 . S
C122 O124 1.247 . A
C122 O125 1.275 . A
O126 C128 1.256 . A
C128 O134 1.256 . A
C129 O131 1.211 . D
C129 O135 1.207 . S
C130 O132 1.247 . A
C130 O133 1.275 . A
Ni136 O144 2.304 . S
Ni136 O148 2.357 . S
Ni136 O149 2.109 . S
Ni136 O150 1.981 . S
Ni136 O151 1.927 . S
Ni136 O152 2.112 . S
Ni137 O140 2.357 . S
Ni137 O141 2.109 . S
Ni137 O142 1.981 . S
Ni137 O143 1.927 . S
Ni137 O144 2.112 . S
Ni137 O152 2.304 . S
C138 O140 1.211 . D
C138 O144 1.207 . S
C139 O141 1.247 . A
C139 O142 1.275 . A
O143 C145 1.256 . A
C145 O151 1.256 . A
C146 O148 1.211 . D
C146 O152 1.207 . S
C147 O149 1.247 . A
C147 O150 1.275 . A
Ni153 O161 2.304 . S
Ni153 O165 2.357 . S
Ni153 O166 2.109 . S
Ni153 O167 1.981 . S
Ni153 O168 1.927 . S
Ni153 O169 2.112 . S
Ni154 O157 2.357 . S
Ni154 O158 2.109 . S
Ni154 O159 1.981 . S
Ni154 O160 1.927 . S
Ni154 O161 2.112 . S
Ni154 O169 2.304 . S
C155 O157 1.211 . D
C155 O161 1.207 . S
C156 O158 1.247 . A
C156 O159 1.275 . A
O160 C162 1.256 . A
C162 O168 1.256 . A
C163 O165 1.211 . D
C163 O169 1.207 . S
C164 O166 1.247 . A
C164 O167 1.275 . A
Ni170 O178 2.304 . S
Ni170 O182 2.357 . S
Ni170 O183 2.109 . S
Ni170 O184 1.981 . S
Ni170 O185 1.927 . S
Ni170 O186 2.112 . S
Ni171 O174 2.357 . S
Ni171 O175 2.109 . S
Ni171 O176 1.981 . S
Ni171 O177 1.927 . S
Ni171 O178 2.112 . S
Ni171 O186 2.304 . S
C172 O174 1.211 . D
C172 O178 1.207 . S
C173 O175 1.247 . A
C173 O176 1.275 . A
O177 C179 1.256 . A
C179 O185 1.256 . A
C180 O182 1.211 . D
C180 O186 1.207 . S
C181 O183 1.247 . A
C181 O184 1.275 . A
Ni187 O195 2.304 . S
Ni187 O199 2.357 . S
Ni187 O200 2.109 . S
Ni187 O201 1.981 . S
Ni187 O202 1.927 . S
Ni187 O203 2.112 . S
Ni188 O191 2.357 . S
Ni188 O192 2.109 . S
Ni188 O193 1.981 . S
Ni188 O194 1.927 . S
Ni188 O195 2.112 . S
Ni188 O203 2.304 . S
C189 O191 1.211 . D
C189 O195 1.207 . S
C190 O192 1.247 . A
C190 O193 1.275 . A
O194 C196 1.256 . A
C196 O202 1.256 . A
C197 O199 1.211 . D
C197 O203 1.207 . S
C198 O200 1.247 . A
C198 O201 1.275 . A
C204 C205 1.390 . A
C204 H209 0.930 . S
C204 N212 1.344 . A
C205 C206 1.372 . A
C206 C207 1.383 . A
C206 H210 0.930 . S
C207 C208 1.376 . A
C208 H211 0.930 . S
C208 N212 1.332 . A
C213 C214 1.390 . A
C213 H218 0.930 . S
C213 N221 1.344 . A
C214 C215 1.372 . A
C215 C216 1.383 . A
C215 H219 0.930 . S
C216 C217 1.376 . A
C217 H220 0.930 . S
C217 N221 1.332 . A
C222 C223 1.390 . A
C222 H227 0.930 . S
C222 N230 1.344 . A
C223 C224 1.372 . A
C224 C225 1.383 . A
C224 H228 0.930 . S
C225 C226 1.376 . A
C226 H229 0.930 . S
C226 N230 1.332 . A
C231 C232 1.390 . A
C231 H236 0.930 . S
C231 N239 1.344 . A
C232 C233 1.372 . A
C233 C234 1.383 . A
C233 H237 0.930 . S
C234 C235 1.376 . A
C235 H238 0.930 . S
C235 N239 1.332 . A
C240 C241 1.390 . A
C240 H245 0.930 . S
C240 N248 1.344 . A
C241 C242 1.372 . A
C242 C243 1.383 . A
C242 H246 0.930 . S
C243 C244 1.376 . A
C244 H247 0.930 . S
C244 N248 1.332 . A
C249 C250 1.390 . A
C249 H254 0.930 . S
C249 N257 1.344 . A
C250 C251 1.372 . A
C251 C252 1.383 . A
C251 H255 0.930 . S
C252 C253 1.376 . A
C253 H256 0.930 . S
C253 N257 1.332 . A
C258 C259 1.390 . A
C258 H263 0.930 . S
C258 N266 1.344 . A
C259 C260 1.372 . A
C260 C261 1.383 . A
C260 H264 0.930 . S
C261 C262 1.376 . A
C262 H265 0.930 . S
C262 N266 1.332 . A
C267 C268 1.390 . A
C267 H272 0.930 . S
C267 N275 1.344 . A
C268 C269 1.372 . A
C269 C270 1.383 . A
C269 H273 0.930 . S
C270 C271 1.376 . A
C271 H274 0.930 . S
C271 N275 1.332 . A
C276 C277 1.390 . A
C276 H281 0.930 . S
C276 N284 1.344 . A
C277 C278 1.372 . A
C278 C279 1.383 . A
C278 H282 0.930 . S
C279 C280 1.376 . A
C280 H283 0.930 . S
C280 N284 1.332 . A
C285 C286 1.390 . A
C285 H290 0.930 . S
C285 N293 1.344 . A
C286 C287 1.372 . A
C287 C288 1.383 . A
C287 H291 0.930 . S
C288 C289 1.376 . A
C289 H292 0.930 . S
C289 N293 1.332 . A
C294 C295 1.390 . A
C294 H299 0.930 . S
C294 N302 1.344 . A
C295 C296 1.372 . A
C296 C297 1.383 . A
C296 H300 0.930 . S
C297 C298 1.376 . A
C298 H301 0.930 . S
C298 N302 1.332 . A
C303 C304 1.390 . A
C303 H308 0.930 . S
C303 N311 1.344 . A
C304 C305 1.372 . A
C305 C306 1.383 . A
C305 H309 0.930 . S
C306 C307 1.376 . A
C307 H310 0.930 . S
C307 N311 1.332 . A
C312 C313 1.390 1_554 A
C312 H317 0.930 . S
C312 N320 1.344 . A
C313 C314 1.372 . A
C314 C315 1.383 1_556 A
C314 H318 0.930 . S
C315 C316 1.376 . A
C316 H319 0.930 . S
C316 N320 1.332 . A
C321 C322 1.390 . A
C321 H326 0.930 . S
C321 N329 1.344 1_556 A
C322 C323 1.372 . A
C323 C324 1.383 1_556 A
C323 H327 0.930 . S
C324 C325 1.376 . A
C325 H328 0.930 . S
C325 N329 1.332 . A
C330 C331 1.390 . A
C330 H335 0.930 . S
C330 N338 1.344 . A
C331 C332 1.374 . A
C332 C333 1.381 1_455 A
C332 H336 0.930 1_455 S
C333 C334 1.376 . A
C334 H337 0.930 . S
C334 N338 1.332 1_655 A
C339 C340 1.390 1_565 A
C339 H344 0.930 1_565 S
C339 N347 1.344 . A
C340 C341 1.372 . A
C341 C342 1.383 1_545 A
C341 H345 0.930 . S
C342 C343 1.376 . A
C343 H346 0.930 . S
C343 N347 1.332 . A
C348 C349 1.390 . A
C348 H353 0.930 . S
C348 N356 1.344 . A
C349 C350 1.376 . A
C350 C351 1.379 1_655 A
C350 H354 0.930 1_655 S
C351 C352 1.376 . A
C352 H355 0.930 . S
C352 N356 1.332 1_455 A
C357 C358 1.390 . A
C357 H362 0.930 . S
C357 N365 1.344 . A
C358 C359 1.372 . A
C359 C360 1.383 1_545 A
C359 H363 0.930 1_545 S
C360 C361 1.376 . A
C361 H364 0.930 . S
C361 N365 1.332 1_565 A
C366 C367 1.390 1_554 A
C366 H371 0.930 . S
C366 N374 1.344 . A
C367 C368 1.372 . A
C368 C369 1.383 1_556 A
C368 H372 0.930 . S
C369 C370 1.376 . A
C370 H373 0.930 . S
C370 N374 1.332 . A
C375 C376 1.390 . A
C375 H380 0.930 . S
C375 N383 1.346 1_554 A
C376 C377 1.372 . A
C377 C378 1.383 1_554 A
C377 H381 0.930 . S
C378 C379 1.376 . A
C379 H382 0.930 . S
C379 N383 1.330 . A
C384 C385 1.390 . A
C384 H389 0.930 . S
C384 N392 1.344 . A
C385 C386 1.372 1_655 A
C386 C387 1.383 . A
C386 H390 0.930 . S
C387 C388 1.376 1_455 A
C388 H391 0.930 . S
C388 N392 1.332 . A
C393 C394 1.390 1_655 A
C393 H398 0.930 . S
C393 N401 1.344 . A
C394 C395 1.372 . A
C395 C396 1.383 1_455 A
C395 H399 0.930 . S
C396 C397 1.376 . A
C397 H400 0.930 . S
C397 N401 1.332 . A
C402 C403 1.390 . A
C402 H407 0.930 . S
C402 N410 1.344 1_565 A
C403 C404 1.372 . A
C404 C405 1.383 1_565 A
C404 H408 0.930 . S
C405 C406 1.376 . A
C406 H409 0.930 . S
C406 N410 1.332 . A
C411 C412 1.390 . A
C411 H416 0.930 . S
C411 N419 1.344 . A
C412 C413 1.374 . A
C413 C414 1.381 1_565 A
C413 H417 0.930 1_565 S
C414 C415 1.376 . A
C415 H418 0.930 . S
C415 N419 1.332 1_545 A
C420 C421 1.390 1_556 A
C420 H425 0.930 . S
C420 N428 1.344 . A
C421 C422 1.386 . A
C422 C423 1.370 1_564 A
C422 H426 0.929 1_565 S
C423 C424 1.376 . A
C424 H427 0.930 . S
C424 N428 1.332 1_545 A
C429 C430 1.390 . A
C429 H434 0.930 . S
C429 N437 1.344 1_556 A
C430 C431 1.372 1_655 A
C431 C432 1.383 1_456 A
C431 H435 0.930 . S
C432 C433 1.376 . A
C433 H436 0.930 . S
C433 N437 1.332 . A
C438 C439 1.395 . A
C438 H443 0.930 . S
C438 N446 1.344 . A
C439 C440 1.370 1_546 A
C440 C441 1.383 1_554 A
C440 H444 0.930 . S
C441 C442 1.376 . A
C442 H445 0.930 . S
C442 N446 1.332 1_565 A
C447 C448 1.388 1_545 A
C447 H452 0.930 . S
C447 N455 1.344 . A
C448 C449 1.372 1_455 A
C449 C450 1.383 1_565 A
C449 H453 0.930 . S
C450 C451 1.376 . A
C451 H454 0.930 . S
C451 N455 1.332 1_655 A
C456 C457 1.390 . A
C456 H461 0.930 . S
C456 N464 1.344 1_455 A
C457 C458 1.372 1_545 A
C458 C459 1.378 1_465 A
C458 H462 0.930 . S
C459 C460 1.396 . A
C460 H463 0.930 . S
C460 N464 1.332 . A
C465 C466 1.390 1_655 A
C465 H470 0.930 . S
C465 N473 1.344 . A
C466 C467 1.372 1_556 A
C467 C468 1.383 1_455 A
C467 H471 0.930 . S
C468 C469 1.376 . A
C469 H472 0.930 . S
C469 N473 1.332 1_554 A
C205 C10 1.074 . S
C207 C71 0.914 . S
C214 C95 0.926 . S
C216 C20 1.136 . S
C223 C44 0.973 . S
C225 C88 1.254 . S
C232 C129 1.215 . S
C234 C54 0.957 . S
C241 C78 1.249 . S
C243 C190 1.186 . S
C250 C139 1.031 . S
C252 C112 0.993 . S
C259 C61 1.023 . S
C261 C156 0.945 . S
C268 C180 1.093 . S
C270 C105 0.908 . S
C277 C197 1.067 . S
C279 C3 0.917 . S
C286 C146 1.019 . S
C288 C173 0.948 . S
C295 C27 1.193 . S
C297 C37 1.268 . S
C304 C122 1.211 . S
C306 C163 1.031 . S
C313 C36 1.146 . S
C315 C2 1.257 . S
C322 C28 0.581 . S
C324 C164 1.166 . S
C331 C113 1.140 . S
C333 C62 0.692 . S
C340 C104 1.165 . S
C342 C70 1.250 . S
C349 C96 1.119 . S
C351 C79 0.624 . S
C358 C53 1.157 . S
C360 C87 1.203 . S
C367 C172 1.130 . S
C369 C121 1.247 . S
C376 C198 0.803 . S
C378 C147 0.908 . S
C385 C155 1.201 . S
C387 C189 1.198 . S
C394 C138 1.132 . S
C396 C19 1.251 . S
C403 C11 0.621 . S
C405 C130 1.076 . S
C412 C45 1.142 . S
C414 C181 0.659 . S
C421 C9 1.228 . S
C423 C179 1.212 . S
C430 C26 1.002 . S
C432 C196 1.234 1_655 S
C439 C128 1.138 1_556 S
C441 C43 0.986 . S
C448 C77 1.128 . S
C450 C60 0.971 . S
C457 C111 0.930 . S
C459 C94 1.166 1_545 S
C466 C145 1.053 . S
C468 C162 0.916 . S
