# Generated by pormake.
# Topology crr, (4)-cn, num edge types: 1
# Building blocks:
#     Node 0, Type 0, BuildingBlock: N422, # of connection points: 6
#     Node 1, Type 0, BuildingBlock: N422, # of connection points: 6
#     Node 2, Type 0, BuildingBlock: N422, # of connection points: 6
#     Node 3, Type 0, BuildingBlock: N422, # of connection points: 6
#     Node 4, Type 0, BuildingBlock: N422, # of connection points: 6
#     Node 5, Type 0, BuildingBlock: N422, # of connection points: 6
#     Node 6, Type 0, BuildingBlock: N422, # of connection points: 6
#     Node 7, Type 0, BuildingBlock: N422, # of connection points: 6
#     Node 8, Type 0, BuildingBlock: N422, # of connection points: 6
#     Node 9, Type 0, BuildingBlock: N422, # of connection points: 6
#     Node 10, Type 0, BuildingBlock: N422, # of connection points: 6
#     Node 11, Type 0, BuildingBlock: N422, # of connection points: 6
#     Edge 12, Type (0, 0), BuildingBlock: E181, # of connection points: 2
#     Edge 13, Type (0, 0), BuildingBlock: E181, # of connection points: 2
#     Edge 14, Type (0, 0), BuildingBlock: E181, # of connection points: 2
#     Edge 15, Type (0, 0), BuildingBlock: E181, # of connection points: 2
#     Edge 16, Type (0, 0), BuildingBlock: E181, # of connection points: 2
#     Edge 17, Type (0, 0), BuildingBlock: E181, # of connection points: 2
#     Edge 18, Type (0, 0), BuildingBlock: E181, # of connection points: 2
#     Edge 19, Type (0, 0), BuildingBlock: E181, # of connection points: 2
#     Edge 20, Type (0, 0), BuildingBlock: E181, # of connection points: 2
#     Edge 21, Type (0, 0), BuildingBlock: E181, # of connection points: 2
#     Edge 22, Type (0, 0), BuildingBlock: E181, # of connection points: 2
#     Edge 23, Type (0, 0), BuildingBlock: E181, # of connection points: 2
#     Edge 24, Type (0, 0), BuildingBlock: E181, # of connection points: 2
#     Edge 25, Type (0, 0), BuildingBlock: E181, # of connection points: 2
#     Edge 26, Type (0, 0), BuildingBlock: E181, # of connection points: 2
#     Edge 27, Type (0, 0), BuildingBlock: E181, # of connection points: 2
#     Edge 28, Type (0, 0), BuildingBlock: E181, # of connection points: 2
#     Edge 29, Type (0, 0), BuildingBlock: E181, # of connection points: 2
#     Edge 30, Type (0, 0), BuildingBlock: E181, # of connection points: 2
#     Edge 31, Type (0, 0), BuildingBlock: E181, # of connection points: 2
#     Edge 32, Type (0, 0), BuildingBlock: E181, # of connection points: 2
#     Edge 33, Type (0, 0), BuildingBlock: E181, # of connection points: 2
#     Edge 34, Type (0, 0), BuildingBlock: E181, # of connection points: 2
#     Edge 35, Type (0, 0), BuildingBlock: E181, # of connection points: 2
# Relax obj value: 0.125
# Max RMSD: 0.417
# Mean RMSD: 0.399
data_crr+N422+E181
_symmetry_space_group_name_H-M    P1
_symmetry_Int_Tables_number       1
_symmetry_cell_setting            triclinic
loop_
_symmetry_equiv_pos_as_xyz
'x, y, z'
_cell_length_a     36.968
_cell_length_b     38.875
_cell_length_c     38.891
_cell_angle_alpha  89.960
_cell_angle_beta   90.000
_cell_angle_gamma  90.000
loop_
_atom_site_label
_atom_site_type_symbol
_atom_site_fract_x
_atom_site_fract_y
_atom_site_fract_z
_atom_type_partial_charge
O0 O 0.73587 0.00010 0.32841 0.00000
O1 O 0.76747 0.97474 0.36937 0.00000
O2 O 0.64931 0.98545 0.31935 0.00000
O3 O 0.65514 0.03856 0.32759 0.00000
O4 O 0.71561 0.94834 0.41912 0.00000
O5 O 0.68206 0.99024 0.39455 0.00000
O6 O 0.75716 0.90019 0.29374 0.00000
O7 O 0.78223 0.90503 0.34533 0.00000
O8 O 0.66992 0.88810 0.28577 0.00000
O9 O 0.69577 0.84663 0.26140 0.00000
O10 O 0.73063 0.87738 0.39465 0.00000
O11 O 0.71162 0.85060 0.34639 0.00000
O12 O 0.70301 0.92909 0.34882 0.00000
C13 C 0.76462 0.99493 0.34522 0.00000
C14 C 0.63931 0.01395 0.31686 0.00000
C15 C 0.69487 0.97360 0.42037 0.00000
Zn16 Zn 0.69217 0.97879 0.34610 0.00000
Zn17 Zn 0.71073 0.89112 0.31586 0.00000
Zn18 Zn 0.74681 0.92614 0.38158 0.00000
H19 H 0.66956 0.04580 0.31255 0.00000
C20 C 0.78390 0.90386 0.31382 0.00000
C21 C 0.67070 0.86564 0.26572 0.00000
C22 C 0.72072 0.85149 0.37825 0.00000
H23 H 0.70993 0.85511 0.24679 0.00000
O24 O 0.00527 0.32966 0.73060 0.00000
O25 O 0.97807 0.37050 0.76088 0.00000
O26 O 0.98617 0.31874 0.64913 0.00000
O27 O 0.04197 0.32842 0.65249 0.00000
O28 O 0.94704 0.41869 0.71177 0.00000
O29 O 0.99044 0.39461 0.67873 0.00000
O30 O 0.90138 0.29280 0.75528 0.00000
O31 O 0.90604 0.34494 0.77800 0.00000
O32 O 0.88558 0.28305 0.67303 0.00000
O33 O 0.84365 0.25806 0.69960 0.00000
O34 O 0.87373 0.39268 0.72919 0.00000
O35 O 0.84616 0.34342 0.71301 0.00000
O36 O 0.92822 0.34769 0.70178 0.00000
C37 C 0.99990 0.34681 0.75783 0.00000
C38 C 0.01579 0.31680 0.63859 0.00000
C39 C 0.97276 0.42022 0.69108 0.00000
Zn40 Zn 0.98008 0.34604 0.68963 0.00000
Zn41 Zn 0.88950 0.31391 0.71115 0.00000
Zn42 Zn 0.92591 0.38112 0.74291 0.00000
H43 H 0.05052 0.31381 0.66617 0.00000
C44 C 0.90572 0.31342 0.78018 0.00000
C45 C 0.86255 0.26244 0.67500 0.00000
C46 C 0.84659 0.37546 0.72106 0.00000
H47 H 0.85348 0.24391 0.71298 0.00000
O48 O 0.26603 0.99080 0.66806 0.00000
O49 O 0.23574 0.96526 0.62597 0.00000
O50 O 0.35257 0.97638 0.67864 0.00000
O51 O 0.34619 0.02958 0.67128 0.00000
O52 O 0.28908 0.94051 0.57683 0.00000
O53 O 0.32148 0.98231 0.60288 0.00000
O54 O 0.24536 0.88930 0.70039 0.00000
O55 O 0.22141 0.89489 0.64839 0.00000
O56 O 0.33256 0.87811 0.70994 0.00000
O57 O 0.30674 0.83585 0.73299 0.00000
O58 O 0.27449 0.86889 0.59964 0.00000
O59 O 0.29278 0.84136 0.64777 0.00000
O60 O 0.30034 0.91998 0.64700 0.00000
C61 C 0.23776 0.98498 0.65055 0.00000
C62 C 0.36211 0.00494 0.68187 0.00000
C63 C 0.30949 0.96605 0.57649 0.00000
Zn64 Zn 0.31043 0.96974 0.65088 0.00000
Zn65 Zn 0.29241 0.88126 0.67907 0.00000
Zn66 Zn 0.25735 0.91718 0.61329 0.00000
H67 H 0.33133 0.03633 0.68615 0.00000
C68 C 0.21904 0.89306 0.67983 0.00000
C69 C 0.33163 0.85524 0.72955 0.00000
C70 C 0.28439 0.84280 0.61575 0.00000
H71 H 0.29214 0.84385 0.74745 0.00000
O72 O 0.73587 0.99990 0.67159 0.00000
O73 O 0.76747 0.02526 0.63063 0.00000
O74 O 0.64931 0.01455 0.68065 0.00000
O75 O 0.65514 0.96144 0.67241 0.00000
O76 O 0.71561 0.05166 0.58088 0.00000
O77 O 0.68206 0.00976 0.60545 0.00000
O78 O 0.75716 0.09981 0.70627 0.00000
O79 O 0.78223 0.09497 0.65467 0.00000
O80 O 0.66992 0.11190 0.71423 0.00000
O81 O 0.69577 0.15337 0.73860 0.00000
O82 O 0.73063 0.12262 0.60535 0.00000
O83 O 0.71162 0.14940 0.65361 0.00000
O84 O 0.70301 0.07091 0.65118 0.00000
C85 C 0.76462 0.00507 0.65478 0.00000
C86 C 0.63931 0.98606 0.68314 0.00000
C87 C 0.69487 0.02640 0.57963 0.00000
Zn88 Zn 0.69217 0.02121 0.65390 0.00000
Zn89 Zn 0.71073 0.10888 0.68414 0.00000
Zn90 Zn 0.74681 0.07386 0.61842 0.00000
H91 H 0.66956 0.95420 0.68745 0.00000
C92 C 0.78390 0.09614 0.68618 0.00000
C93 C 0.67070 0.13436 0.73428 0.00000
C94 C 0.72072 0.14851 0.62175 0.00000
H95 H 0.70993 0.14489 0.75321 0.00000
O96 O 0.13219 0.62377 0.68921 0.00000
O97 O 0.10284 0.60270 0.73429 0.00000
O98 O 0.11656 0.70220 0.66233 0.00000
O99 O 0.17194 0.69906 0.67405 0.00000
O100 O 0.07259 0.66105 0.77126 0.00000
O101 O 0.11782 0.68755 0.74254 0.00000
O102 O 0.02832 0.59567 0.65484 0.00000
O103 O 0.03082 0.58321 0.71047 0.00000
O104 O 0.01600 0.67500 0.62906 0.00000
O105 O 0.97368 0.64542 0.60846 0.00000
O106 O 0.99990 0.64122 0.74701 0.00000
O107 O 0.97358 0.64852 0.69482 0.00000
O108 O 0.05590 0.65785 0.69918 0.00000
C109 C 0.12525 0.60050 0.71109 0.00000
C110 C 0.14661 0.71128 0.65925 0.00000
C111 C 0.09905 0.68087 0.76952 0.00000
Zn112 Zn 0.10823 0.66788 0.69670 0.00000
Zn113 Zn 0.01768 0.64338 0.66675 0.00000
Zn114 Zn 0.05117 0.62396 0.73978 0.00000
H115 H 0.18030 0.68258 0.66259 0.00000
C116 C 0.03118 0.57505 0.67997 0.00000
C117 C 0.99342 0.66983 0.60857 0.00000
C118 C 0.97292 0.64674 0.72779 0.00000
H119 H 0.98332 0.62928 0.59743 0.00000
O120 O 0.00527 0.67034 0.26940 0.00000
O121 O 0.97807 0.62950 0.23912 0.00000
O122 O 0.98617 0.68126 0.35087 0.00000
O123 O 0.04197 0.67158 0.34751 0.00000
O124 O 0.94704 0.58131 0.28823 0.00000
O125 O 0.99044 0.60539 0.32127 0.00000
O126 O 0.90138 0.70720 0.24472 0.00000
O127 O 0.90604 0.65506 0.22200 0.00000
O128 O 0.88558 0.71695 0.32697 0.00000
O129 O 0.84365 0.74194 0.30040 0.00000
O130 O 0.87373 0.60732 0.27081 0.00000
O131 O 0.84616 0.65658 0.28699 0.00000
O132 O 0.92822 0.65231 0.29822 0.00000
C133 C 0.99990 0.65319 0.24217 0.00000
C134 C 0.01579 0.68320 0.36141 0.00000
C135 C 0.97276 0.57978 0.30892 0.00000
Zn136 Zn 0.98008 0.65396 0.31037 0.00000
Zn137 Zn 0.88951 0.68609 0.28885 0.00000
Zn138 Zn 0.92591 0.61888 0.25709 0.00000
H139 H 0.05052 0.68619 0.33383 0.00000
C140 C 0.90572 0.68657 0.21982 0.00000
C141 C 0.86255 0.73756 0.32500 0.00000
C142 C 0.84659 0.62454 0.27894 0.00000
H143 H 0.85348 0.75609 0.28702 0.00000
O144 O 0.13219 0.37623 0.31079 0.00000
O145 O 0.10284 0.39730 0.26571 0.00000
O146 O 0.11657 0.29780 0.33767 0.00000
O147 O 0.17194 0.30094 0.32595 0.00000
O148 O 0.07259 0.33895 0.22874 0.00000
O149 O 0.11782 0.31245 0.25746 0.00000
O150 O 0.02832 0.40433 0.34516 0.00000
O151 O 0.03082 0.41679 0.28953 0.00000
O152 O 0.01600 0.32500 0.37094 0.00000
O153 O 0.97368 0.35458 0.39154 0.00000
O154 O 0.99990 0.35878 0.25299 0.00000
O155 O 0.97358 0.35148 0.30518 0.00000
O156 O 0.05590 0.34215 0.30082 0.00000
C157 C 0.12525 0.39950 0.28891 0.00000
C158 C 0.14661 0.28872 0.34075 0.00000
C159 C 0.09905 0.31913 0.23048 0.00000
Zn160 Zn 0.10823 0.33212 0.30330 0.00000
Zn161 Zn 0.01768 0.35662 0.33325 0.00000
Zn162 Zn 0.05117 0.37604 0.26021 0.00000
H163 H 0.18030 0.31742 0.33741 0.00000
C164 C 0.03118 0.42495 0.32003 0.00000
C165 C 0.99342 0.33017 0.39143 0.00000
C166 C 0.97292 0.35326 0.27221 0.00000
H167 H 0.98332 0.37072 0.40257 0.00000
O168 O 0.26603 0.00920 0.33194 0.00000
O169 O 0.23574 0.03474 0.37403 0.00000
O170 O 0.35257 0.02362 0.32136 0.00000
O171 O 0.34619 0.97042 0.32872 0.00000
O172 O 0.28908 0.05949 0.42317 0.00000
O173 O 0.32148 0.01769 0.39712 0.00000
O174 O 0.24536 0.11070 0.29961 0.00000
O175 O 0.22141 0.10511 0.35161 0.00000
O176 O 0.33256 0.12189 0.29006 0.00000
O177 O 0.30674 0.16415 0.26701 0.00000
O178 O 0.27449 0.13111 0.40036 0.00000
O179 O 0.29278 0.15864 0.35223 0.00000
O180 O 0.30034 0.08002 0.35300 0.00000
C181 C 0.23776 0.01502 0.34945 0.00000
C182 C 0.36211 0.99506 0.31813 0.00000
C183 C 0.30949 0.03395 0.42351 0.00000
Zn184 Zn 0.31043 0.03026 0.34912 0.00000
Zn185 Zn 0.29241 0.11874 0.32093 0.00000
Zn186 Zn 0.25735 0.08282 0.38671 0.00000
H187 H 0.33133 0.96367 0.31385 0.00000
C188 C 0.21904 0.10694 0.32017 0.00000
C189 C 0.33163 0.14476 0.27045 0.00000
C190 C 0.28439 0.15720 0.38425 0.00000
H191 H 0.29214 0.15615 0.25254 0.00000
O192 O 0.37436 0.29830 0.12304 0.00000
O193 O 0.39447 0.25245 0.09500 0.00000
O194 O 0.29195 0.32656 0.11067 0.00000
O195 O 0.29703 0.31542 0.16331 0.00000
O196 O 0.33126 0.21630 0.06889 0.00000
O197 O 0.30569 0.24607 0.11243 0.00000
O198 O 0.40083 0.33091 0.02290 0.00000
O199 O 0.41282 0.27506 0.02557 0.00000
O200 O 0.31758 0.35813 0.01371 0.00000
O201 O 0.34755 0.37766 0.97216 0.00000
O202 O 0.34994 0.23930 0.99822 0.00000
O203 O 0.34245 0.29135 0.97335 0.00000
O204 O 0.33556 0.28813 0.05194 0.00000
C205 C 0.39809 0.27587 0.11590 0.00000
C206 C 0.28358 0.33017 0.13950 0.00000
C207 C 0.31145 0.21873 0.09472 0.00000
Zn208 Zn 0.32698 0.29141 0.10198 0.00000
Zn209 Zn 0.35006 0.31983 0.01467 0.00000
Zn210 Zn 0.37013 0.24678 0.04677 0.00000
H211 H 0.31489 0.32664 0.17050 0.00000
C212 C 0.42206 0.30540 0.02521 0.00000
C213 C 0.32262 0.37827 0.99180 0.00000
C214 C 0.34359 0.25833 0.97311 0.00000
H215 H 0.36509 0.38848 0.98059 0.00000
O216 O 0.37436 0.70170 0.87696 0.00000
O217 O 0.39447 0.74755 0.90500 0.00000
O218 O 0.29195 0.67344 0.88933 0.00000
O219 O 0.29703 0.68458 0.83669 0.00000
O220 O 0.33127 0.78370 0.93111 0.00000
O221 O 0.30569 0.75393 0.88758 0.00000
O222 O 0.40083 0.66909 0.97711 0.00000
O223 O 0.41282 0.72494 0.97443 0.00000
O224 O 0.31758 0.64187 0.98629 0.00000
O225 O 0.34755 0.62234 0.02784 0.00000
O226 O 0.34994 0.76070 0.00178 0.00000
O227 O 0.34245 0.70865 0.02665 0.00000
O228 O 0.33556 0.71187 0.94806 0.00000
C229 C 0.39809 0.72413 0.88410 0.00000
C230 C 0.28358 0.66983 0.86050 0.00000
C231 C 0.31145 0.78127 0.90528 0.00000
Zn232 Zn 0.32698 0.70859 0.89802 0.00000
Zn233 Zn 0.35006 0.68017 0.98533 0.00000
Zn234 Zn 0.37013 0.75322 0.95323 0.00000
H235 H 0.31489 0.67336 0.82950 0.00000
C236 C 0.42206 0.69460 0.97480 0.00000
C237 C 0.32262 0.62173 0.00820 0.00000
C238 C 0.34359 0.74167 0.02689 0.00000
H239 H 0.36509 0.61152 0.01941 0.00000
O240 O 0.62794 0.70217 0.12189 0.00000
O241 O 0.60688 0.74746 0.09352 0.00000
O242 O 0.71045 0.67456 0.10872 0.00000
O243 O 0.70609 0.68631 0.16127 0.00000
O244 O 0.66926 0.78390 0.06599 0.00000
O245 O 0.69585 0.75493 0.10956 0.00000
O246 O 0.60025 0.66805 0.02260 0.00000
O247 O 0.58768 0.72381 0.02467 0.00000
O248 O 0.68364 0.64152 0.01259 0.00000
O249 O 0.65323 0.62119 0.97175 0.00000
O250 O 0.64972 0.75983 0.99593 0.00000
O251 O 0.65740 0.70755 0.97167 0.00000
O252 O 0.66550 0.71182 0.05010 0.00000
C253 C 0.60385 0.72428 0.11478 0.00000
C254 C 0.71931 0.67139 0.13747 0.00000
C255 C 0.68951 0.78199 0.09157 0.00000
Zn256 Zn 0.67490 0.70926 0.10005 0.00000
Zn257 Zn 0.65076 0.67951 0.01349 0.00000
Zn258 Zn 0.63039 0.75276 0.04486 0.00000
H259 H 0.68846 0.67500 0.16887 0.00000
C260 C 0.57877 0.69338 0.02486 0.00000
C261 C 0.67847 0.62107 0.99103 0.00000
C262 C 0.65588 0.74055 0.97099 0.00000
H263 H 0.63594 0.61030 0.98058 0.00000
O264 O 0.62794 0.29783 0.87811 0.00000
O265 O 0.60688 0.25254 0.90648 0.00000
O266 O 0.71045 0.32544 0.89128 0.00000
O267 O 0.70609 0.31368 0.83873 0.00000
O268 O 0.66927 0.21610 0.93401 0.00000
O269 O 0.69586 0.24507 0.89044 0.00000
O270 O 0.60025 0.33195 0.97740 0.00000
O271 O 0.58768 0.27619 0.97532 0.00000
O272 O 0.68364 0.35848 0.98741 0.00000
O273 O 0.65323 0.37881 0.02825 0.00000
O274 O 0.64972 0.24017 0.00407 0.00000
O275 O 0.65740 0.29245 0.02832 0.00000
O276 O 0.66550 0.28818 0.94990 0.00000
C277 C 0.60385 0.27572 0.88522 0.00000
C278 C 0.71932 0.32861 0.86253 0.00000
C279 C 0.68951 0.21801 0.90843 0.00000
Zn280 Zn 0.67490 0.29074 0.89995 0.00000
Zn281 Zn 0.65076 0.32049 0.98651 0.00000
Zn282 Zn 0.63039 0.24724 0.95513 0.00000
H283 H 0.68846 0.32500 0.83113 0.00000
C284 C 0.57877 0.30662 0.97514 0.00000
C285 C 0.67847 0.37893 0.00897 0.00000
C286 C 0.65588 0.25945 0.02901 0.00000
H287 H 0.63594 0.38970 0.01942 0.00000
C288 C 0.68277 0.80904 0.11594 0.00000
C289 C 0.68817 0.84219 0.16679 0.00000
C290 C 0.65733 0.82679 0.18046 0.00000
C291 C 0.70794 0.86495 0.18668 0.00000
C292 C 0.64697 0.83420 0.21408 0.00000
C293 C 0.69755 0.87210 0.22050 0.00000
H294 H 0.65782 0.81578 0.11217 0.00000
H295 H 0.68273 0.78843 0.13004 0.00000
H296 H 0.64376 0.81166 0.16724 0.00000
H297 H 0.72830 0.87555 0.17746 0.00000
C298 C 0.66711 0.85601 0.23381 0.00000
O299 O 0.70084 0.83577 0.13398 0.00000
H300 H 0.62620 0.82418 0.22316 0.00000
H301 H 0.71082 0.88740 0.23386 0.00000
C302 C 0.76414 0.34533 0.85640 0.00000
C303 C 0.80945 0.32983 0.81618 0.00000
C304 C 0.83515 0.32775 0.84228 0.00000
C305 C 0.81884 0.32060 0.78299 0.00000
C306 C 0.86988 0.31608 0.83475 0.00000
C307 C 0.85367 0.30868 0.77563 0.00000
H308 H 0.77837 0.36400 0.86590 0.00000
H309 H 0.76980 0.32463 0.86930 0.00000
H310 H 0.82917 0.33409 0.86458 0.00000
H311 H 0.80183 0.32235 0.76546 0.00000
C312 C 0.87866 0.30623 0.80212 0.00000
O313 O 0.77419 0.34040 0.82147 0.00000
H314 H 0.88718 0.31496 0.85209 0.00000
H315 H 0.85999 0.30250 0.75332 0.00000
C316 C 0.31755 0.80053 0.87886 0.00000
C317 C 0.32316 0.83921 0.83203 0.00000
C318 C 0.33699 0.81314 0.81129 0.00000
C319 C 0.31658 0.87135 0.81804 0.00000
C320 C 0.34369 0.81963 0.77665 0.00000
C321 C 0.32312 0.87764 0.78319 0.00000
H322 H 0.34252 0.79303 0.87729 0.00000
H323 H 0.30312 0.78562 0.86427 0.00000
H324 H 0.34171 0.79156 0.82051 0.00000
H325 H 0.30773 0.88889 0.83194 0.00000
C326 C 0.33629 0.85115 0.76285 0.00000
O327 O 0.31499 0.83483 0.86644 0.00000
H328 H 0.35324 0.80235 0.76282 0.00000
H329 H 0.31872 0.89925 0.77378 0.00000
C330 C 0.80190 0.11933 0.69624 0.00000
C331 C 0.82439 0.16536 0.66245 0.00000
C332 C 0.83007 0.18514 0.69181 0.00000
C333 C 0.83536 0.17776 0.63075 0.00000
C334 C 0.84704 0.21701 0.68895 0.00000
C335 C 0.85261 0.20966 0.62808 0.00000
H336 H 0.78440 0.13373 0.70798 0.00000
H337 H 0.82421 0.11985 0.70939 0.00000
H338 H 0.82259 0.17714 0.71315 0.00000
H339 H 0.83122 0.16475 0.61108 0.00000
C340 C 0.85858 0.22867 0.65771 0.00000
O341 O 0.80849 0.13318 0.66300 0.00000
H342 H 0.85057 0.23040 0.70848 0.00000
H343 H 0.85996 0.21800 0.60678 0.00000
C344 C 0.18275 0.87177 0.67879 0.00000
C345 C 0.17721 0.81125 0.68394 0.00000
C346 C 0.16190 0.80920 0.65128 0.00000
C347 C 0.18452 0.78137 0.70201 0.00000
C348 C 0.15447 0.77709 0.63705 0.00000
C349 C 0.17723 0.74920 0.68750 0.00000
H350 H 0.15750 0.87484 0.67275 0.00000
H351 H 0.19624 0.86831 0.65765 0.00000
H352 H 0.15668 0.82911 0.63905 0.00000
H353 H 0.19435 0.78271 0.72397 0.00000
C354 C 0.16259 0.74773 0.65469 0.00000
O355 O 0.18616 0.84195 0.69970 0.00000
H356 H 0.14395 0.77567 0.61537 0.00000
H357 H 0.18213 0.72912 0.69965 0.00000
C358 C 0.86448 0.77253 0.33729 0.00000
C359 C 0.82638 0.82151 0.33942 0.00000
C360 C 0.84522 0.83665 0.31234 0.00000
C361 C 0.79596 0.83759 0.35251 0.00000
C362 C 0.83301 0.86761 0.29853 0.00000
C363 C 0.78369 0.86855 0.33839 0.00000
H364 H 0.88645 0.78608 0.33872 0.00000
H365 H 0.85836 0.76998 0.31315 0.00000
H366 H 0.86580 0.82617 0.30353 0.00000
H367 H 0.78359 0.82772 0.37085 0.00000
C368 C 0.80247 0.88288 0.31102 0.00000
O369 O 0.83612 0.79051 0.35418 0.00000
H370 H 0.84574 0.87793 0.28064 0.00000
H371 H 0.76325 0.87937 0.34720 0.00000
C372 C 0.16410 0.25324 0.34196 0.00000
C373 C 0.15752 0.19435 0.32754 0.00000
C374 C 0.19472 0.18935 0.33024 0.00000
C375 C 0.13516 0.16648 0.32131 0.00000
C376 C 0.20894 0.15633 0.32698 0.00000
C377 C 0.14956 0.13336 0.31830 0.00000
H378 H 0.18217 0.25727 0.32434 0.00000
H379 H 0.17660 0.24628 0.36279 0.00000
H380 H 0.20996 0.20792 0.33419 0.00000
H381 H 0.11036 0.16983 0.31911 0.00000
C382 C 0.18662 0.12887 0.32169 0.00000
O383 O 0.14105 0.22606 0.33116 0.00000
H384 H 0.23381 0.15298 0.32846 0.00000
H385 H 0.13454 0.11464 0.31410 0.00000
C386 C 0.35263 0.15154 0.23333 0.00000
C387 C 0.32482 0.18708 0.19144 0.00000
C388 C 0.33477 0.16438 0.16541 0.00000
C389 C 0.30347 0.21528 0.18366 0.00000
C390 C 0.32281 0.17012 0.13194 0.00000
C391 C 0.29133 0.22078 0.15005 0.00000
H392 H 0.37549 0.15080 0.22113 0.00000
H393 H 0.33792 0.13252 0.22522 0.00000
H394 H 0.34929 0.14552 0.17035 0.00000
H395 H 0.29715 0.23067 0.20093 0.00000
C396 C 0.30101 0.19751 0.12463 0.00000
O397 O 0.33482 0.18297 0.22545 0.00000
H398 H 0.32968 0.15516 0.11446 0.00000
H399 H 0.27699 0.23973 0.14481 0.00000
C400 C 0.12329 0.67708 0.80047 0.00000
C401 C 0.17898 0.68767 0.82872 0.00000
C402 C 0.18996 0.65387 0.82305 0.00000
C403 C 0.20272 0.71075 0.84370 0.00000
C404 C 0.22482 0.64380 0.83220 0.00000
C405 C 0.23777 0.70055 0.85261 0.00000
H406 H 0.11782 0.65711 0.81451 0.00000
H407 H 0.13680 0.66928 0.78054 0.00000
H408 H 0.17414 0.63814 0.81322 0.00000
H409 H 0.19530 0.73321 0.84787 0.00000
C410 C 0.24837 0.66694 0.84618 0.00000
O411 O 0.14521 0.70005 0.81979 0.00000
H412 H 0.23210 0.62116 0.82872 0.00000
H413 H 0.25371 0.71606 0.86270 0.00000
C414 C 0.76117 0.65276 0.15217 0.00000
C415 C 0.80748 0.68404 0.18040 0.00000
C416 C 0.83349 0.66091 0.16870 0.00000
C417 C 0.81816 0.71292 0.19854 0.00000
C418 C 0.86994 0.66731 0.17507 0.00000
C419 C 0.85482 0.71934 0.20466 0.00000
H420 H 0.76811 0.63111 0.16268 0.00000
H421 H 0.77461 0.65513 0.13085 0.00000
H422 H 0.82656 0.64135 0.15670 0.00000
H423 H 0.80081 0.72818 0.20671 0.00000
C424 C 0.88031 0.69630 0.19224 0.00000
O425 O 0.77082 0.68010 0.17461 0.00000
H426 H 0.88734 0.65175 0.16755 0.00000
H427 H 0.86200 0.73874 0.21686 0.00000
C428 C 0.67051 0.14358 0.76579 0.00000
C429 C 0.66856 0.15251 0.82603 0.00000
C430 C 0.69340 0.17932 0.82334 0.00000
C431 C 0.65307 0.14514 0.85759 0.00000
C432 C 0.70207 0.19861 0.85235 0.00000
C433 C 0.66169 0.16476 0.88658 0.00000
H434 H 0.69667 0.14178 0.76533 0.00000
H435 H 0.66421 0.16761 0.76259 0.00000
H436 H 0.70410 0.18430 0.80232 0.00000
H437 H 0.63679 0.12700 0.85951 0.00000
C438 C 0.68600 0.19173 0.88320 0.00000
O439 O 0.65781 0.13254 0.79847 0.00000
H440 H 0.71890 0.21633 0.85068 0.00000
H441 H 0.65130 0.15980 0.90779 0.00000
C442 C 0.13132 0.31758 0.21341 0.00000
C443 C 0.17334 0.33787 0.17209 0.00000
C444 C 0.20191 0.32340 0.19043 0.00000
C445 C 0.17994 0.35331 0.14063 0.00000
C446 C 0.23671 0.32432 0.17673 0.00000
C447 C 0.21489 0.35395 0.12690 0.00000
H448 H 0.14435 0.32772 0.23253 0.00000
H449 H 0.14070 0.29452 0.20991 0.00000
H450 H 0.19778 0.31318 0.21166 0.00000
H451 H 0.16097 0.36333 0.12854 0.00000
C452 C 0.24284 0.33884 0.14530 0.00000
O453 O 0.13789 0.33747 0.18338 0.00000
H454 H 0.25589 0.31494 0.18908 0.00000
H455 H 0.21933 0.36434 0.10577 0.00000
C456 C 0.56710 0.00604 0.29675 0.00000
C457 C 0.50578 0.02146 0.30564 0.00000
C458 C 0.49461 0.98823 0.29748 0.00000
C459 C 0.48058 0.04535 0.31667 0.00000
C460 C 0.45828 0.97935 0.30085 0.00000
C461 C 0.44418 0.03622 0.32022 0.00000
H462 H 0.56249 0.99677 0.27402 0.00000
H463 H 0.56399 0.98752 0.31325 0.00000
H464 H 0.51129 0.97209 0.28985 0.00000
H465 H 0.48792 0.06765 0.32175 0.00000
C466 C 0.43375 0.00282 0.31255 0.00000
O467 O 0.54135 0.03226 0.30376 0.00000
H468 H 0.45071 0.95726 0.29512 0.00000
H469 H 0.42724 0.05229 0.32762 0.00000
C470 C 0.98898 0.43516 0.68590 0.00000
C471 C 0.99470 0.49528 0.69442 0.00000
C472 C 0.02360 0.49663 0.67148 0.00000
C473 C 0.98135 0.52544 0.70841 0.00000
C474 C 0.03847 0.52834 0.66262 0.00000
C475 C 0.99623 0.55722 0.69924 0.00000
H476 H 0.01427 0.43078 0.69088 0.00000
H477 H 0.98679 0.43941 0.66138 0.00000
H478 H 0.03289 0.47651 0.66213 0.00000
H479 H 0.96232 0.52455 0.72403 0.00000
C480 C 0.02457 0.55803 0.67588 0.00000
O481 O 0.97781 0.46505 0.70406 0.00000
H482 H 0.05799 0.52928 0.64755 0.00000
H483 H 0.98727 0.57749 0.70866 0.00000
C484 C 0.56605 0.98288 0.68559 0.00000
C485 C 0.50901 0.01052 0.68876 0.00000
C486 C 0.49137 0.97886 0.68847 0.00000
C487 C 0.48914 0.04039 0.69302 0.00000
C488 C 0.45399 0.97762 0.69281 0.00000
C489 C 0.45166 0.03896 0.69761 0.00000
H490 H 0.55933 0.96939 0.66562 0.00000
H491 H 0.55963 0.96976 0.70594 0.00000
H492 H 0.50444 0.95871 0.68541 0.00000
H493 H 0.50083 0.06157 0.69283 0.00000
C494 C 0.43470 0.00713 0.69785 0.00000
O495 O 0.54604 0.01409 0.68537 0.00000
H496 H 0.44211 0.95653 0.69232 0.00000
H497 H 0.43830 0.05904 0.70045 0.00000
C498 C 0.69110 0.01007 0.56314 0.00000
C499 C 0.70234 0.01129 0.50316 0.00000
C500 C 0.68169 0.98169 0.49852 0.00000
C501 C 0.71629 0.02823 0.47480 0.00000
C502 C 0.67501 0.96970 0.46538 0.00000
C503 C 0.70929 0.01621 0.44158 0.00000
H504 H 0.69906 0.98642 0.56553 0.00000
H505 H 0.66536 0.00982 0.55821 0.00000
H506 H 0.67241 0.97002 0.51740 0.00000
H507 H 0.73043 0.04777 0.47787 0.00000
C508 C 0.68811 0.98704 0.43751 0.00000
O509 O 0.70965 0.02539 0.53503 0.00000
H510 H 0.66149 0.94976 0.46223 0.00000
H511 H 0.71868 0.02759 0.42252 0.00000
C512 C 0.99078 0.69365 0.54842 0.00000
C513 C 0.99730 0.67380 0.49115 0.00000
C514 C 0.00322 0.70725 0.47956 0.00000
C515 C 0.00010 0.64661 0.46837 0.00000
C516 C 0.01235 0.71289 0.44528 0.00000
C517 C 0.00963 0.65241 0.43403 0.00000
H518 H 0.97264 0.71059 0.54225 0.00000
H519 H 0.01435 0.70451 0.54649 0.00000
H520 H 0.00110 0.72567 0.49461 0.00000
H521 H 0.99586 0.62431 0.47597 0.00000
C522 C 0.01604 0.68586 0.42317 0.00000
O523 O 0.98890 0.66579 0.52485 0.00000
H524 H 0.01600 0.73523 0.43741 0.00000
H525 H 0.01156 0.63414 0.41871 0.00000
C526 C 0.32731 0.97371 0.55742 0.00000
C527 C 0.30903 0.01076 0.51222 0.00000
C528 C 0.33233 0.99424 0.48943 0.00000
C529 C 0.28612 0.03623 0.50022 0.00000
C530 C 0.33202 0.00332 0.45478 0.00000
C531 C 0.28575 0.04507 0.46536 0.00000
H532 H 0.35282 0.97837 0.55390 0.00000
H533 H 0.32078 0.95423 0.54310 0.00000
H534 H 0.34796 0.97728 0.49729 0.00000
H535 H 0.27085 0.04756 0.51547 0.00000
C536 C 0.30871 0.02787 0.44300 0.00000
O537 O 0.30699 0.00289 0.54683 0.00000
H538 H 0.34778 0.99254 0.43956 0.00000
H539 H 0.27037 0.06220 0.45730 0.00000
C540 C 0.00104 0.30800 0.57773 0.00000
C541 C 0.01224 0.29547 0.51906 0.00000
C542 C 0.98896 0.32173 0.50884 0.00000
C543 C 0.03165 0.27751 0.49450 0.00000
C544 C 0.98577 0.32984 0.47408 0.00000
C545 C 0.02853 0.28592 0.45967 0.00000
H546 H 0.97500 0.30667 0.57506 0.00000
H547 H 0.00831 0.33160 0.57335 0.00000
H548 H 0.97564 0.33378 0.52511 0.00000
H549 H 0.04689 0.25971 0.50125 0.00000
C550 C 0.00569 0.31257 0.45011 0.00000
O551 O 0.01763 0.28622 0.55299 0.00000
H552 H 0.97000 0.34716 0.46718 0.00000
H553 H 0.04157 0.27383 0.44316 0.00000
C554 C 0.03436 0.44557 0.31435 0.00000
C555 C 0.02021 0.50279 0.33046 0.00000
C556 C 0.99677 0.50602 0.30260 0.00000
C557 C 0.02287 0.52929 0.35407 0.00000
C558 C 0.97603 0.53572 0.29903 0.00000
C559 C 0.00179 0.55894 0.35049 0.00000
H560 H 0.04057 0.45199 0.29098 0.00000
H561 H 0.00871 0.44027 0.31490 0.00000
H562 H 0.99498 0.48847 0.28650 0.00000
H563 H 0.03881 0.52734 0.37247 0.00000
C564 C 0.97815 0.56137 0.32289 0.00000
O565 O 0.04120 0.47397 0.33640 0.00000
H566 H 0.96060 0.53806 0.28027 0.00000
H567 H 0.00359 0.57676 0.36635 0.00000
C568 C 0.31885 0.56273 0.00792 0.00000
C569 C 0.30697 0.50776 0.98416 0.00000
C570 C 0.31987 0.49178 0.01380 0.00000
C571 C 0.29203 0.48802 0.95818 0.00000
C572 C 0.31725 0.45619 0.01708 0.00000
C573 C 0.28924 0.45232 0.96173 0.00000
H574 H 0.34378 0.55715 0.01334 0.00000
H575 H 0.30410 0.55647 0.02760 0.00000
H576 H 0.33015 0.50479 0.03127 0.00000
H577 H 0.28379 0.49860 0.93822 0.00000
C578 C 0.30166 0.43700 0.99171 0.00000
O579 O 0.30778 0.54294 0.97906 0.00000
H580 H 0.32614 0.44544 0.03672 0.00000
H581 H 0.27922 0.43906 0.94426 0.00000
C582 C 0.56470 0.69501 0.01834 0.00000
C583 C 0.50078 0.69848 0.01533 0.00000
C584 C 0.50148 0.68989 0.98058 0.00000
C585 C 0.46788 0.70214 0.03193 0.00000
C586 C 0.46909 0.68474 0.96303 0.00000
C587 C 0.43546 0.69670 0.01424 0.00000
H588 H 0.56819 0.71047 0.99990 0.00000
H589 H 0.56319 0.67176 0.00938 0.00000
H590 H 0.52341 0.68760 0.96917 0.00000
H591 H 0.46736 0.70826 0.05503 0.00000
C592 C 0.43679 0.68756 0.97979 0.00000
O593 O 0.53157 0.70334 0.03490 0.00000
H594 H 0.46948 0.67930 0.93974 0.00000
H595 H 0.41335 0.69918 0.02538 0.00000
C596 C 0.68946 0.43624 0.99522 0.00000
C597 C 0.71017 0.49357 0.00167 0.00000
C598 C 0.67773 0.50625 0.98858 0.00000
C599 C 0.73600 0.51627 0.01385 0.00000
C600 C 0.67152 0.54159 0.98823 0.00000
C601 C 0.72952 0.55170 0.01365 0.00000
H602 H 0.68312 0.43946 0.97123 0.00000
H603 H 0.66844 0.44214 0.00897 0.00000
H604 H 0.66033 0.49123 0.98015 0.00000
H605 H 0.75784 0.50787 0.02224 0.00000
C606 C 0.69676 0.56375 0.00107 0.00000
O607 O 0.71827 0.45892 0.00368 0.00000
H608 H 0.65000 0.55013 0.97922 0.00000
H609 H 0.74688 0.56696 0.02182 0.00000
C610 C 0.44437 0.30610 0.03518 0.00000
C611 C 0.49360 0.32662 0.00195 0.00000
C612 C 0.51210 0.29575 0.00667 0.00000
C613 C 0.50808 0.35163 0.98068 0.00000
C614 C 0.54475 0.29030 0.98966 0.00000
C615 C 0.54075 0.34592 0.96348 0.00000
H616 H 0.45964 0.29980 0.05445 0.00000
H617 H 0.44284 0.28638 0.01995 0.00000
H618 H 0.50271 0.27891 0.02107 0.00000
H619 H 0.49598 0.37240 0.97781 0.00000
C620 C 0.55840 0.31475 0.96806 0.00000
O621 O 0.46072 0.33390 0.01722 0.00000
H622 H 0.55731 0.26983 0.99301 0.00000
H623 H 0.55049 0.36273 0.94920 0.00000
loop_
_geom_bond_atom_site_label_1
_geom_bond_atom_site_label_2
_geom_bond_distance
_geom_bond_site_symmetry_2
_ccdc_geom_bond_type
O0 C13 1.264 1_545 A
O0 Zn16 1.941 1_545 S
O1 C13 1.228 . A
O1 Zn18 2.092 . S
O2 C14 1.172 1_565 A
O2 Zn16 1.913 . S
O3 C14 1.197 . A
O3 H19 0.840 . S
O4 C15 1.247 . A
O4 Zn18 2.051 . S
O5 C15 1.284 . A
O5 Zn16 1.972 . S
O6 Zn17 1.952 . S
O6 C20 1.268 . A
O7 Zn18 2.092 . S
O7 C20 1.228 . A
O8 Zn17 1.913 . S
O8 C21 1.172 . A
O9 C21 1.197 . A
O9 H23 0.840 . S
O10 Zn18 2.051 . S
O10 C22 1.247 . A
O11 Zn17 1.972 . S
O11 C22 1.284 . A
O12 Zn16 1.976 . S
O12 Zn17 1.976 . S
O12 Zn18 2.064 . S
O24 C37 1.267 1_455 A
O24 Zn40 1.952 1_455 S
O25 C37 1.230 . A
O25 Zn42 2.092 . S
O26 C38 1.172 1_655 A
O26 Zn40 1.913 . S
O27 C38 1.197 . A
O27 H43 0.840 . S
O28 C39 1.247 . A
O28 Zn42 2.051 . S
O29 C39 1.284 . A
O29 Zn40 1.972 . S
O30 Zn41 1.952 . S
O30 C44 1.268 . A
O31 Zn42 2.092 . S
O31 C44 1.228 . A
O32 Zn41 1.913 . S
O32 C45 1.172 . A
O33 C45 1.197 . A
O33 H47 0.840 . S
O34 Zn42 2.051 . S
O34 C46 1.247 . A
O35 Zn41 1.972 . S
O35 C46 1.284 . A
O36 Zn40 1.976 . S
O36 Zn41 1.976 . S
O36 Zn42 2.064 . S
O48 C61 1.268 . A
O48 Zn64 1.952 . S
O49 C61 1.228 . A
O49 Zn66 2.092 . S
O50 C62 1.172 1_565 A
O50 Zn64 1.913 . S
O51 C62 1.197 . A
O51 H67 0.840 . S
O52 C63 1.247 . A
O52 Zn66 2.051 . S
O53 C63 1.284 . A
O53 Zn64 1.972 . S
O54 Zn65 1.952 . S
O54 C68 1.268 . A
O55 Zn66 2.092 . S
O55 C68 1.228 . A
O56 Zn65 1.913 . S
O56 C69 1.172 . A
O57 C69 1.197 . A
O57 H71 0.840 . S
O58 Zn66 2.051 . S
O58 C70 1.247 . A
O59 Zn65 1.972 . S
O59 C70 1.284 . A
O60 Zn64 1.976 . S
O60 Zn65 1.976 . S
O60 Zn66 2.064 . S
O72 C85 1.264 1_565 A
O72 Zn88 1.941 1_565 S
O73 C85 1.228 . A
O73 Zn90 2.092 . S
O74 C86 1.172 1_545 A
O74 Zn88 1.913 . S
O75 C86 1.197 . A
O75 H91 0.840 . S
O76 C87 1.247 . A
O76 Zn90 2.051 . S
O77 C87 1.284 . A
O77 Zn88 1.972 . S
O78 Zn89 1.952 . S
O78 C92 1.268 . A
O79 Zn90 2.092 . S
O79 C92 1.228 . A
O80 Zn89 1.913 . S
O80 C93 1.172 . A
O81 C93 1.197 . A
O81 H95 0.840 . S
O82 Zn90 2.051 . S
O82 C94 1.247 . A
O83 Zn89 1.972 . S
O83 C94 1.284 . A
O84 Zn88 1.976 . S
O84 Zn89 1.976 . S
O84 Zn90 2.064 . S
O96 C109 1.268 . A
O96 Zn112 1.952 . S
O97 C109 1.228 . A
O97 Zn114 2.092 . S
O98 C110 1.172 . A
O98 Zn112 1.913 . S
O99 C110 1.197 . A
O99 H115 0.840 . S
O100 C111 1.247 . A
O100 Zn114 2.051 . S
O101 C111 1.284 . A
O101 Zn112 1.972 . S
O102 Zn113 1.952 . S
O102 C116 1.268 . A
O103 Zn114 2.092 . S
O103 C116 1.228 . A
O104 Zn113 1.913 . S
O104 C117 1.172 1_455 A
O105 C117 1.197 . A
O105 H119 0.840 . S
O106 Zn114 2.030 1_655 S
O106 C118 1.265 . A
O107 Zn113 1.972 1_655 S
O107 C118 1.284 . A
O108 Zn112 1.976 . S
O108 Zn113 1.976 . S
O108 Zn114 2.064 . S
O120 C133 1.267 1_455 A
O120 Zn136 1.952 1_455 S
O121 C133 1.230 . A
O121 Zn138 2.092 . S
O122 C134 1.172 1_655 A
O122 Zn136 1.913 . S
O123 C134 1.197 . A
O123 H139 0.840 . S
O124 C135 1.247 . A
O124 Zn138 2.051 . S
O125 C135 1.284 . A
O125 Zn136 1.972 . S
O126 Zn137 1.952 . S
O126 C140 1.268 . A
O127 Zn138 2.092 . S
O127 C140 1.228 . A
O128 Zn137 1.913 . S
O128 C141 1.172 . A
O129 C141 1.197 . A
O129 H143 0.840 . S
O130 Zn138 2.051 . S
O130 C142 1.247 . A
O131 Zn137 1.972 . S
O131 C142 1.284 . A
O132 Zn136 1.976 . S
O132 Zn137 1.976 . S
O132 Zn138 2.064 . S
O144 C157 1.268 . A
O144 Zn160 1.952 . S
O145 C157 1.228 . A
O145 Zn162 2.092 . S
O146 C158 1.172 . A
O146 Zn160 1.913 . S
O147 C158 1.197 . A
O147 H163 0.840 . S
O148 C159 1.247 . A
O148 Zn162 2.051 . S
O149 C159 1.284 . A
O149 Zn160 1.972 . S
O150 Zn161 1.952 . S
O150 C164 1.268 . A
O151 Zn162 2.092 . S
O151 C164 1.228 . A
O152 Zn161 1.913 . S
O152 C165 1.172 1_455 A
O153 C165 1.197 . A
O153 H167 0.840 . S
O154 Zn162 2.030 1_655 S
O154 C166 1.265 . A
O155 Zn161 1.972 1_655 S
O155 C166 1.284 . A
O156 Zn160 1.976 . S
O156 Zn161 1.976 . S
O156 Zn162 2.064 . S
O168 C181 1.268 . A
O168 Zn184 1.952 . S
O169 C181 1.228 . A
O169 Zn186 2.092 . S
O170 C182 1.172 1_545 A
O170 Zn184 1.913 . S
O171 C182 1.197 . A
O171 H187 0.840 . S
O172 C183 1.247 . A
O172 Zn186 2.051 . S
O173 C183 1.284 . A
O173 Zn184 1.972 . S
O174 Zn185 1.952 . S
O174 C188 1.268 . A
O175 Zn186 2.092 . S
O175 C188 1.228 . A
O176 Zn185 1.913 . S
O176 C189 1.172 . A
O177 C189 1.197 . A
O177 H191 0.840 . S
O178 Zn186 2.051 . S
O178 C190 1.247 . A
O179 Zn185 1.972 . S
O179 C190 1.284 . A
O180 Zn184 1.976 . S
O180 Zn185 1.976 . S
O180 Zn186 2.064 . S
O192 C205 1.268 . A
O192 Zn208 1.952 . S
O193 C205 1.228 . A
O193 Zn210 2.092 . S
O194 C206 1.172 . A
O194 Zn208 1.913 . S
O195 C206 1.197 . A
O195 H211 0.840 . S
O196 C207 1.247 . A
O196 Zn210 2.051 . S
O197 C207 1.284 . A
O197 Zn208 1.972 . S
O198 Zn209 1.952 . S
O198 C212 1.268 . A
O199 Zn210 2.092 . S
O199 C212 1.228 . A
O200 Zn209 1.913 . S
O200 C213 1.172 1_554 A
O201 C213 1.197 . A
O201 H215 0.840 . S
O202 Zn210 2.051 1_556 S
O202 C214 1.247 . A
O203 Zn209 1.972 1_556 S
O203 C214 1.284 . A
O204 Zn208 1.976 . S
O204 Zn209 1.976 . S
O204 Zn210 2.064 . S
O216 C229 1.268 . A
O216 Zn232 1.952 . S
O217 C229 1.228 . A
O217 Zn234 2.092 . S
O218 C230 1.172 . A
O218 Zn232 1.913 . S
O219 C230 1.197 . A
O219 H235 0.840 . S
O220 C231 1.247 . A
O220 Zn234 2.051 . S
O221 C231 1.284 . A
O221 Zn232 1.972 . S
O222 Zn233 1.952 . S
O222 C236 1.268 . A
O223 Zn234 2.092 . S
O223 C236 1.228 . A
O224 Zn233 1.913 . S
O224 C237 1.172 1_556 A
O225 C237 1.197 . A
O225 H239 0.840 . S
O226 Zn234 2.051 1_554 S
O226 C238 1.247 . A
O227 Zn233 1.972 1_554 S
O227 C238 1.284 . A
O228 Zn232 1.976 . S
O228 Zn233 1.976 . S
O228 Zn234 2.064 . S
O240 C253 1.268 . A
O240 Zn256 1.952 . S
O241 C253 1.228 . A
O241 Zn258 2.092 . S
O242 C254 1.172 . A
O242 Zn256 1.913 . S
O243 C254 1.197 . A
O243 H259 0.840 . S
O244 C255 1.247 . A
O244 Zn258 2.051 . S
O245 C255 1.284 . A
O245 Zn256 1.972 . S
O246 Zn257 1.952 . S
O246 C260 1.268 . A
O247 Zn258 2.092 . S
O247 C260 1.228 . A
O248 Zn257 1.913 . S
O248 C261 1.172 1_554 A
O249 C261 1.197 . A
O249 H263 0.840 . S
O250 Zn258 2.051 1_556 S
O250 C262 1.247 . A
O251 Zn257 1.972 1_556 S
O251 C262 1.284 . A
O252 Zn256 1.976 . S
O252 Zn257 1.976 . S
O252 Zn258 2.064 . S
O264 C277 1.268 . A
O264 Zn280 1.952 . S
O265 C277 1.228 . A
O265 Zn282 2.092 . S
O266 C278 1.172 . A
O266 Zn280 1.913 . S
O267 C278 1.197 . A
O267 H283 0.840 . S
O268 C279 1.247 . A
O268 Zn282 2.051 . S
O269 C279 1.284 . A
O269 Zn280 1.972 . S
O270 Zn281 1.952 . S
O270 C284 1.268 . A
O271 Zn282 2.092 . S
O271 C284 1.228 . A
O272 Zn281 1.913 . S
O272 C285 1.172 1_556 A
O273 C285 1.197 . A
O273 H287 0.840 . S
O274 Zn282 2.051 1_554 S
O274 C286 1.247 . A
O275 Zn281 1.972 1_554 S
O275 C286 1.284 . A
O276 Zn280 1.976 . S
O276 Zn281 1.976 . S
O276 Zn282 2.064 . S
C288 H294 0.970 . S
C288 H295 0.971 . S
C288 O299 1.421 . S
C289 C290 1.393 . A
C289 C291 1.384 . A
C289 O299 1.382 . S
C290 C292 1.393 . A
C290 H296 0.929 . S
C291 C293 1.398 . A
C291 H297 0.930 . S
C292 C298 1.365 . A
C292 H300 0.930 . S
C293 C298 1.387 . A
C293 H301 0.930 . S
C302 H308 0.970 . S
C302 H309 0.971 . S
C302 O313 1.421 . S
C303 C304 1.393 . A
C303 C305 1.384 . A
C303 O313 1.382 . S
C304 C306 1.393 . A
C304 H310 0.929 . S
C305 C307 1.398 . A
C305 H311 0.930 . S
C306 C312 1.365 . A
C306 H314 0.930 . S
C307 C312 1.387 . A
C307 H315 0.930 . S
C316 H322 0.970 . S
C316 H323 0.971 . S
C316 O327 1.421 . S
C317 C318 1.393 . A
C317 C319 1.384 . A
C317 O327 1.382 . S
C318 C320 1.393 . A
C318 H324 0.929 . S
C319 C321 1.398 . A
C319 H325 0.930 . S
C320 C326 1.365 . A
C320 H328 0.930 . S
C321 C326 1.387 . A
C321 H329 0.930 . S
C330 H336 0.970 . S
C330 H337 0.971 . S
C330 O341 1.421 . S
C331 C332 1.393 . A
C331 C333 1.384 . A
C331 O341 1.382 . S
C332 C334 1.393 . A
C332 H338 0.929 . S
C333 C335 1.398 . A
C333 H339 0.930 . S
C334 C340 1.365 . A
C334 H342 0.930 . S
C335 C340 1.387 . A
C335 H343 0.930 . S
C344 H350 0.970 . S
C344 H351 0.971 . S
C344 O355 1.421 . S
C345 C346 1.393 . A
C345 C347 1.384 . A
C345 O355 1.382 . S
C346 C348 1.393 . A
C346 H352 0.929 . S
C347 C349 1.398 . A
C347 H353 0.930 . S
C348 C354 1.365 . A
C348 H356 0.930 . S
C349 C354 1.387 . A
C349 H357 0.930 . S
C358 H364 0.970 . S
C358 H365 0.971 . S
C358 O369 1.421 . S
C359 C360 1.393 . A
C359 C361 1.384 . A
C359 O369 1.382 . S
C360 C362 1.393 . A
C360 H366 0.929 . S
C361 C363 1.398 . A
C361 H367 0.930 . S
C362 C368 1.365 . A
C362 H370 0.930 . S
C363 C368 1.387 . A
C363 H371 0.930 . S
C372 H378 0.970 . S
C372 H379 0.971 . S
C372 O383 1.421 . S
C373 C374 1.393 . A
C373 C375 1.384 . A
C373 O383 1.382 . S
C374 C376 1.393 . A
C374 H380 0.929 . S
C375 C377 1.398 . A
C375 H381 0.930 . S
C376 C382 1.365 . A
C376 H384 0.930 . S
C377 C382 1.387 . A
C377 H385 0.930 . S
C386 H392 0.970 . S
C386 H393 0.971 . S
C386 O397 1.421 . S
C387 C388 1.393 . A
C387 C389 1.384 . A
C387 O397 1.382 . S
C388 C390 1.393 . A
C388 H394 0.929 . S
C389 C391 1.398 . A
C389 H395 0.930 . S
C390 C396 1.365 . A
C390 H398 0.930 . S
C391 C396 1.387 . A
C391 H399 0.930 . S
C400 H406 0.970 . S
C400 H407 0.971 . S
C400 O411 1.421 . S
C401 C402 1.393 . A
C401 C403 1.384 . A
C401 O411 1.382 . S
C402 C404 1.393 . A
C402 H408 0.929 . S
C403 C405 1.398 . A
C403 H409 0.930 . S
C404 C410 1.365 . A
C404 H412 0.930 . S
C405 C410 1.387 . A
C405 H413 0.930 . S
C414 H420 0.970 . S
C414 H421 0.971 . S
C414 O425 1.421 . S
C415 C416 1.393 . A
C415 C417 1.384 . A
C415 O425 1.382 . S
C416 C418 1.393 . A
C416 H422 0.929 . S
C417 C419 1.398 . A
C417 H423 0.930 . S
C418 C424 1.365 . A
C418 H426 0.930 . S
C419 C424 1.387 . A
C419 H427 0.930 . S
C428 H434 0.970 . S
C428 H435 0.971 . S
C428 O439 1.421 . S
C429 C430 1.393 . A
C429 C431 1.384 . A
C429 O439 1.382 . S
C430 C432 1.393 . A
C430 H436 0.929 . S
C431 C433 1.398 . A
C431 H437 0.930 . S
C432 C438 1.365 . A
C432 H440 0.930 . S
C433 C438 1.387 . A
C433 H441 0.930 . S
C442 H448 0.970 . S
C442 H449 0.971 . S
C442 O453 1.421 . S
C443 C444 1.393 . A
C443 C445 1.384 . A
C443 O453 1.382 . S
C444 C446 1.393 . A
C444 H450 0.929 . S
C445 C447 1.398 . A
C445 H451 0.930 . S
C446 C452 1.365 . A
C446 H454 0.930 . S
C447 C452 1.387 . A
C447 H455 0.930 . S
C456 H462 0.970 1_545 S
C456 H463 0.971 1_545 S
C456 O467 1.421 . S
C457 C458 1.393 1_545 A
C457 C459 1.384 . A
C457 O467 1.382 . S
C458 C460 1.393 . A
C458 H464 0.929 . S
C459 C461 1.398 . A
C459 H465 0.930 . S
C460 C466 1.365 1_565 A
C460 H468 0.930 . S
C461 C466 1.387 . A
C461 H469 0.930 . S
C470 H476 0.970 1_655 S
C470 H477 0.971 . S
C470 O481 1.421 . S
C471 C472 1.393 1_655 A
C471 C473 1.384 . A
C471 O481 1.382 . S
C472 C474 1.393 . A
C472 H478 0.929 . S
C473 C475 1.398 . A
C473 H479 0.930 . S
C474 C480 1.365 . A
C474 H482 0.930 . S
C475 C480 1.387 1_655 A
C475 H483 0.930 . S
C484 H490 0.970 . S
C484 H491 0.971 . S
C484 O495 1.421 1_565 S
C485 C486 1.393 1_545 A
C485 C487 1.384 . A
C485 O495 1.382 . S
C486 C488 1.393 . A
C486 H492 0.929 . S
C487 C489 1.398 . A
C487 H493 0.930 . S
C488 C494 1.365 1_565 A
C488 H496 0.930 . S
C489 C494 1.387 . A
C489 H497 0.930 . S
C498 H504 0.970 1_545 S
C498 H505 0.971 . S
C498 O509 1.421 . S
C499 C500 1.393 1_545 A
C499 C501 1.384 . A
C499 O509 1.382 . S
C500 C502 1.393 . A
C500 H506 0.929 . S
C501 C503 1.398 . A
C501 H507 0.930 . S
C502 C508 1.365 . A
C502 H510 0.930 . S
C503 C508 1.387 1_545 A
C503 H511 0.930 . S
C512 H518 0.970 . S
C512 H519 0.971 1_655 S
C512 O523 1.421 . S
C513 C514 1.393 1_655 A
C513 C515 1.384 1_655 A
C513 O523 1.382 . S
C514 C516 1.393 . A
C514 H520 0.929 . S
C515 C517 1.399 . A
C515 H521 0.929 1_455 S
C516 C522 1.365 . A
C516 H524 0.930 . S
C517 C522 1.387 . A
C517 H525 0.930 . S
C526 H532 0.970 . S
C526 H533 0.971 . S
C526 O537 1.421 1_565 S
C527 C528 1.393 1_545 A
C527 C529 1.384 . A
C527 O537 1.382 . S
C528 C530 1.393 1_565 A
C528 H534 0.929 . S
C529 C531 1.398 . A
C529 H535 0.930 . S
C530 C536 1.365 . A
C530 H538 0.930 1_545 S
C531 C536 1.387 . A
C531 H539 0.930 . S
C540 H546 0.970 1_455 S
C540 H547 0.971 . S
C540 O551 1.421 . S
C541 C542 1.393 1_455 A
C541 C543 1.384 . A
C541 O551 1.382 . S
C542 C544 1.393 . A
C542 H548 0.929 . S
C543 C545 1.398 . A
C543 H549 0.930 . S
C544 C550 1.365 1_655 A
C544 H552 0.930 . S
C545 C550 1.387 . A
C545 H553 0.930 . S
C554 H560 0.970 . S
C554 H561 0.971 . S
C554 O565 1.421 . S
C555 C556 1.393 1_455 A
C555 C557 1.384 . A
C555 O565 1.382 . S
C556 C558 1.393 . A
C556 H562 0.929 . S
C557 C559 1.398 . A
C557 H563 0.930 . S
C558 C564 1.365 . A
C558 H566 0.930 . S
C559 C564 1.387 1_455 A
C559 H567 0.930 . S
C568 H574 0.970 . S
C568 H575 0.971 . S
C568 O579 1.421 1_554 S
C569 C570 1.393 1_556 A
C569 C571 1.384 . A
C569 O579 1.382 . S
C570 C572 1.393 . A
C570 H576 0.929 . S
C571 C573 1.398 . A
C571 H577 0.930 . S
C572 C578 1.365 1_554 A
C572 H580 0.930 . S
C573 C578 1.387 . A
C573 H581 0.930 . S
C582 H588 0.944 1_554 S
C582 H589 0.971 . S
C582 O593 1.421 . S
C583 C584 1.393 1_554 A
C583 C585 1.384 . A
C583 O593 1.382 . S
C584 C586 1.393 . A
C584 H590 0.929 . S
C585 C587 1.398 . A
C585 H591 0.930 . S
C586 C592 1.365 . A
C586 H594 0.930 . S
C587 C592 1.387 1_554 A
C587 H595 0.930 . S
C596 H602 0.970 . S
C596 H603 0.971 1_556 S
C596 O607 1.421 1_556 S
C597 C598 1.393 1_554 A
C597 C599 1.384 . A
C597 O607 1.382 . S
C598 C600 1.393 . A
C598 H604 0.929 . S
C599 C601 1.398 . A
C599 H605 0.930 . S
C600 C606 1.365 1_556 A
C600 H608 0.930 . S
C601 C606 1.387 . A
C601 H609 0.930 . S
C610 H616 0.970 . S
C610 H617 0.971 . S
C610 O621 1.421 . S
C611 C612 1.393 . A
C611 C613 1.384 1_554 A
C611 O621 1.382 . S
C612 C614 1.393 1_554 A
C612 H618 0.929 . S
C613 C615 1.398 . A
C613 H619 0.930 . S
C614 C620 1.365 . A
C614 H622 0.930 . S
C615 C620 1.387 . A
C615 H623 0.930 . S
C288 C255 1.438 . S
C298 C21 1.303 . S
C302 C278 1.796 . S
C312 C44 1.344 . S
C316 C231 1.291 . S
C326 C69 1.316 . S
C330 C92 1.187 . S
C340 C45 1.482 . S
C344 C68 1.577 . S
C354 C110 1.545 . S
C358 C141 1.443 . S
C368 C20 1.072 . S
C372 C158 1.524 . S
C382 C188 1.472 . S
C386 C189 1.660 . S
C396 C207 1.477 . S
C400 C111 1.507 . S
C410 C230 1.421 . S
C414 C254 1.802 . S
C424 C140 1.475 . S
C428 C93 1.277 . S
C438 C279 1.423 . S
C442 C159 1.366 . S
C452 C206 1.560 . S
C456 C14 2.799 . S
C466 C182 2.674 1_545 S
C470 C39 0.859 . S
C480 C116 0.723 . S
C484 C86 2.713 . S
C494 C62 2.756 . S
C498 C87 0.913 . S
C508 C15 0.883 . S
C512 C117 2.517 . S
C522 C134 2.404 . S
C526 C63 1.036 . S
C536 C183 0.794 . S
C540 C38 2.453 . S
C550 C165 2.425 1_455 S
C554 C164 0.840 . S
C564 C135 0.920 . S
C568 C237 2.298 . S
C578 C213 2.411 . S
C582 C260 0.582 . S
C592 C236 0.639 . S
C596 C285 2.327 1_556 S
C606 C261 2.361 1_554 S
C610 C212 0.912 . S
C620 C284 0.862 . S
