# Generated by pormake.
# Topology fnq, (5)-cn, num edge types: 1
# Building blocks:
#     Node 0, Type 0, BuildingBlock: N206, # of connection points: 5
#     Node 1, Type 0, BuildingBlock: N206, # of connection points: 5
#     Node 2, Type 0, BuildingBlock: N206, # of connection points: 5
#     Node 3, Type 0, BuildingBlock: N206, # of connection points: 5
#     Node 4, Type 0, BuildingBlock: N206, # of connection points: 5
#     Node 5, Type 0, BuildingBlock: N206, # of connection points: 5
#     Node 6, Type 0, BuildingBlock: N206, # of connection points: 5
#     Node 7, Type 0, BuildingBlock: N206, # of connection points: 5
#     Node 8, Type 0, BuildingBlock: N206, # of connection points: 5
#     Node 9, Type 0, BuildingBlock: N206, # of connection points: 5
#     Node 10, Type 0, BuildingBlock: N206, # of connection points: 5
#     Node 11, Type 0, BuildingBlock: N206, # of connection points: 5
#     Node 12, Type 0, BuildingBlock: N206, # of connection points: 5
#     Node 13, Type 0, BuildingBlock: N206, # of connection points: 5
#     Node 14, Type 0, BuildingBlock: N206, # of connection points: 5
#     Node 15, Type 0, BuildingBlock: N206, # of connection points: 5
#     Node 16, Type 0, BuildingBlock: N206, # of connection points: 5
#     Node 17, Type 0, BuildingBlock: N206, # of connection points: 5
#     Edge 18, Type (0, 0), BuildingBlock: E202, # of connection points: 2
#     Edge 19, Type (0, 0), BuildingBlock: E202, # of connection points: 2
#     Edge 20, Type (0, 0), BuildingBlock: E202, # of connection points: 2
#     Edge 21, Type (0, 0), BuildingBlock: E202, # of connection points: 2
#     Edge 22, Type (0, 0), BuildingBlock: E202, # of connection points: 2
#     Edge 23, Type (0, 0), BuildingBlock: E202, # of connection points: 2
#     Edge 24, Type (0, 0), BuildingBlock: E202, # of connection points: 2
#     Edge 25, Type (0, 0), BuildingBlock: E202, # of connection points: 2
#     Edge 26, Type (0, 0), BuildingBlock: E202, # of connection points: 2
#     Edge 27, Type (0, 0), BuildingBlock: E202, # of connection points: 2
#     Edge 28, Type (0, 0), BuildingBlock: E202, # of connection points: 2
#     Edge 29, Type (0, 0), BuildingBlock: E202, # of connection points: 2
#     Edge 30, Type (0, 0), BuildingBlock: E202, # of connection points: 2
#     Edge 31, Type (0, 0), BuildingBlock: E202, # of connection points: 2
#     Edge 32, Type (0, 0), BuildingBlock: E202, # of connection points: 2
#     Edge 33, Type (0, 0), BuildingBlock: E202, # of connection points: 2
#     Edge 34, Type (0, 0), BuildingBlock: E202, # of connection points: 2
#     Edge 35, Type (0, 0), BuildingBlock: E202, # of connection points: 2
#     Edge 36, Type (0, 0), BuildingBlock: E202, # of connection points: 2
#     Edge 37, Type (0, 0), BuildingBlock: E202, # of connection points: 2
#     Edge 38, Type (0, 0), BuildingBlock: E202, # of connection points: 2
#     Edge 39, Type (0, 0), BuildingBlock: E202, # of connection points: 2
#     Edge 40, Type (0, 0), BuildingBlock: E202, # of connection points: 2
#     Edge 41, Type (0, 0), BuildingBlock: E202, # of connection points: 2
#     Edge 42, Type (0, 0), BuildingBlock: E202, # of connection points: 2
#     Edge 43, Type (0, 0), BuildingBlock: E202, # of connection points: 2
#     Edge 44, Type (0, 0), BuildingBlock: E202, # of connection points: 2
#     Edge 45, Type (0, 0), BuildingBlock: E202, # of connection points: 2
#     Edge 46, Type (0, 0), BuildingBlock: E202, # of connection points: 2
#     Edge 47, Type (0, 0), BuildingBlock: E202, # of connection points: 2
#     Edge 48, Type (0, 0), BuildingBlock: E202, # of connection points: 2
#     Edge 49, Type (0, 0), BuildingBlock: E202, # of connection points: 2
#     Edge 50, Type (0, 0), BuildingBlock: E202, # of connection points: 2
#     Edge 51, Type (0, 0), BuildingBlock: E202, # of connection points: 2
#     Edge 52, Type (0, 0), BuildingBlock: E202, # of connection points: 2
#     Edge 53, Type (0, 0), BuildingBlock: E202, # of connection points: 2
#     Edge 54, Type (0, 0), BuildingBlock: E202, # of connection points: 2
#     Edge 55, Type (0, 0), BuildingBlock: E202, # of connection points: 2
#     Edge 56, Type (0, 0), BuildingBlock: E202, # of connection points: 2
#     Edge 57, Type (0, 0), BuildingBlock: E202, # of connection points: 2
#     Edge 58, Type (0, 0), BuildingBlock: E202, # of connection points: 2
#     Edge 59, Type (0, 0), BuildingBlock: E202, # of connection points: 2
#     Edge 60, Type (0, 0), BuildingBlock: E202, # of connection points: 2
#     Edge 61, Type (0, 0), BuildingBlock: E202, # of connection points: 2
#     Edge 62, Type (0, 0), BuildingBlock: E202, # of connection points: 2
# Relax obj value: 0.377
# Max RMSD: 0.207
# Mean RMSD: 0.207
data_fnq+N206+E202
_symmetry_space_group_name_H-M    P1
_symmetry_Int_Tables_number       1
_symmetry_cell_setting            triclinic
loop_
_symmetry_equiv_pos_as_xyz
'x, y, z'
_cell_length_a     36.315
_cell_length_b     36.315
_cell_length_c     23.036
_cell_angle_alpha  90.000
_cell_angle_beta   90.000
_cell_angle_gamma  120.013
loop_
_atom_site_label
_atom_site_type_symbol
_atom_site_fract_x
_atom_site_fract_y
_atom_site_fract_z
_atom_type_partial_charge
Cd0 Cd 0.50855 0.95063 0.78725 0.00000
Cd1 Cd 0.48569 0.02807 0.81267 0.00000
O2 O 0.52472 0.90460 0.77661 0.00000
O3 O 0.52263 0.93509 0.69585 0.00000
O4 O 0.47102 0.99274 0.88130 0.00000
O5 O 0.49994 0.95096 0.87336 0.00000
O6 O 0.44767 0.92563 0.76152 0.00000
O7 O 0.46353 0.99117 0.74434 0.00000
O8 O 0.56135 0.00699 0.77887 0.00000
O9 O 0.54753 0.05661 0.81239 0.00000
C10 C 0.52852 0.90853 0.72334 0.00000
C11 C 0.48269 0.96818 0.90144 0.00000
C12 C 0.43949 0.95229 0.74238 0.00000
O13 O 0.41146 0.02423 0.81742 0.00000
O14 O 0.47813 0.07795 0.81082 0.00000
C15 C 0.43798 0.06253 0.81130 0.00000
C16 C 0.57171 0.04309 0.79561 0.00000
Cd17 Cd 0.10838 0.82414 0.12063 0.00000
Cd18 Cd 0.20870 0.84703 0.14604 0.00000
O19 O 0.04617 0.80795 0.10999 0.00000
O20 O 0.07875 0.81005 0.02923 0.00000
O21 O 0.18804 0.86168 0.21468 0.00000
O22 O 0.11731 0.83274 0.20674 0.00000
O23 O 0.14427 0.88502 0.09490 0.00000
O24 O 0.19395 0.86918 0.07771 0.00000
O25 O 0.11193 0.77135 0.11224 0.00000
O26 O 0.17539 0.78519 0.14576 0.00000
C27 C 0.04630 0.80415 0.05672 0.00000
C28 C 0.15181 0.85001 0.23481 0.00000
C29 C 0.17912 0.89322 0.07576 0.00000
O30 O 0.27910 0.92127 0.15080 0.00000
O31 O 0.26614 0.85461 0.14418 0.00000
C32 C 0.29088 0.89476 0.14467 0.00000
C33 C 0.13767 0.76100 0.12898 0.00000
Cd34 Cd 0.17519 0.28392 0.12061 0.00000
Cd35 Cd 0.15234 0.36137 0.14603 0.00000
O36 O 0.19136 0.23789 0.10997 0.00000
O37 O 0.18927 0.26839 0.02921 0.00000
O38 O 0.13767 0.32604 0.21467 0.00000
O39 O 0.16659 0.28425 0.20672 0.00000
O40 O 0.11431 0.25893 0.09489 0.00000
O41 O 0.13018 0.32447 0.07770 0.00000
O42 O 0.22800 0.34029 0.11223 0.00000
O43 O 0.21418 0.38991 0.14576 0.00000
C44 C 0.19516 0.24183 0.05670 0.00000
C45 C 0.14933 0.30148 0.23480 0.00000
C46 C 0.10613 0.28559 0.07575 0.00000
O47 O 0.07811 0.35753 0.15079 0.00000
O48 O 0.14478 0.41125 0.14418 0.00000
C49 C 0.10463 0.39583 0.14466 0.00000
C50 C 0.23836 0.37638 0.12898 0.00000
Cd51 Cd 0.84187 0.61729 0.45396 0.00000
Cd52 Cd 0.81901 0.69473 0.47937 0.00000
O53 O 0.85804 0.57126 0.44332 0.00000
O54 O 0.85596 0.60175 0.36256 0.00000
O55 O 0.80435 0.65941 0.54801 0.00000
O56 O 0.83327 0.61762 0.54006 0.00000
O57 O 0.78100 0.59229 0.42823 0.00000
O58 O 0.79686 0.65783 0.41104 0.00000
O59 O 0.89468 0.67365 0.44557 0.00000
O60 O 0.88086 0.72327 0.47910 0.00000
C61 C 0.86184 0.57519 0.39005 0.00000
C62 C 0.81601 0.63484 0.56814 0.00000
C63 C 0.77281 0.61895 0.40909 0.00000
O64 O 0.74478 0.69089 0.48413 0.00000
O65 O 0.81146 0.74461 0.47752 0.00000
C66 C 0.77131 0.72919 0.47800 0.00000
C67 C 0.90504 0.70975 0.46232 0.00000
Cd68 Cd 0.28392 0.17519 0.87939 0.00000
Cd69 Cd 0.36137 0.15234 0.85397 0.00000
O70 O 0.23789 0.19135 0.89003 0.00000
O71 O 0.26839 0.18927 0.97079 0.00000
O72 O 0.32605 0.13767 0.78533 0.00000
O73 O 0.28425 0.16659 0.79328 0.00000
O74 O 0.25893 0.11431 0.90511 0.00000
O75 O 0.32447 0.13018 0.92230 0.00000
O76 O 0.34029 0.22800 0.88777 0.00000
O77 O 0.38991 0.21418 0.85424 0.00000
C78 C 0.24183 0.19516 0.94330 0.00000
C79 C 0.30148 0.14933 0.76520 0.00000
C80 C 0.28559 0.10613 0.92425 0.00000
O81 O 0.35753 0.07810 0.84921 0.00000
O82 O 0.41125 0.14478 0.85582 0.00000
C83 C 0.39583 0.10463 0.85533 0.00000
C84 C 0.37638 0.23836 0.87102 0.00000
Cd85 Cd 0.82414 0.10838 0.87937 0.00000
Cd86 Cd 0.84703 0.20870 0.85396 0.00000
O87 O 0.80795 0.04617 0.89001 0.00000
O88 O 0.81005 0.07875 0.97077 0.00000
O89 O 0.86168 0.18804 0.78532 0.00000
O90 O 0.83274 0.11731 0.79326 0.00000
O91 O 0.88502 0.14426 0.90510 0.00000
O92 O 0.86918 0.19395 0.92229 0.00000
O93 O 0.77135 0.11193 0.88776 0.00000
O94 O 0.78519 0.17539 0.85424 0.00000
C95 C 0.80415 0.04630 0.94328 0.00000
C96 C 0.85001 0.15180 0.76519 0.00000
C97 C 0.89322 0.17911 0.92424 0.00000
O98 O 0.92128 0.27910 0.84920 0.00000
O99 O 0.85461 0.26614 0.85582 0.00000
C100 C 0.89476 0.29088 0.85533 0.00000
C101 C 0.76100 0.13767 0.87102 0.00000
Cd102 Cd 0.71537 0.89090 0.12058 0.00000
Cd103 Cd 0.63791 0.79058 0.14601 0.00000
O104 O 0.76140 0.95312 0.10993 0.00000
O105 O 0.73090 0.92052 0.02918 0.00000
O106 O 0.67325 0.81125 0.21465 0.00000
O107 O 0.71504 0.88198 0.20669 0.00000
O108 O 0.74036 0.85503 0.09486 0.00000
O109 O 0.67481 0.80532 0.07768 0.00000
O110 O 0.65901 0.88733 0.11220 0.00000
O111 O 0.60938 0.82387 0.14573 0.00000
C112 C 0.75747 0.95298 0.05666 0.00000
C113 C 0.69781 0.84749 0.23478 0.00000
C114 C 0.71369 0.82017 0.07573 0.00000
O115 O 0.64175 0.72018 0.15078 0.00000
O116 O 0.58803 0.73312 0.14417 0.00000
C117 C 0.60345 0.70840 0.14466 0.00000
C118 C 0.62291 0.86159 0.12895 0.00000
Cd119 Cd 0.89090 0.71537 0.87942 0.00000
Cd120 Cd 0.79057 0.63792 0.85399 0.00000
O121 O 0.95312 0.76140 0.89007 0.00000
O122 O 0.92052 0.73090 0.97082 0.00000
O123 O 0.81125 0.67325 0.78535 0.00000
O124 O 0.88198 0.71504 0.79331 0.00000
O125 O 0.85502 0.74036 0.90514 0.00000
O126 O 0.80532 0.67481 0.92232 0.00000
O127 O 0.88733 0.65901 0.88781 0.00000
O128 O 0.82387 0.60938 0.85427 0.00000
C129 C 0.95298 0.75747 0.94334 0.00000
C130 C 0.84749 0.69781 0.76522 0.00000
C131 C 0.82017 0.71370 0.92427 0.00000
O132 O 0.72018 0.64175 0.84922 0.00000
O133 O 0.73312 0.58804 0.85583 0.00000
C134 C 0.70840 0.60346 0.85534 0.00000
C135 C 0.86158 0.62291 0.87105 0.00000
Cd136 Cd 0.22425 0.38206 0.54607 0.00000
Cd137 Cd 0.12392 0.30461 0.52065 0.00000
O138 O 0.28646 0.42810 0.55672 0.00000
O139 O 0.25387 0.39760 0.63747 0.00000
O140 O 0.14460 0.33994 0.45201 0.00000
O141 O 0.21532 0.38173 0.45996 0.00000
O142 O 0.18837 0.40705 0.57179 0.00000
O143 O 0.13867 0.34151 0.58897 0.00000
O144 O 0.22067 0.32570 0.55446 0.00000
O145 O 0.15722 0.27608 0.52093 0.00000
C146 C 0.28632 0.42416 0.60999 0.00000
C147 C 0.18083 0.36450 0.43188 0.00000
C148 C 0.15352 0.38039 0.59093 0.00000
O149 O 0.05353 0.30845 0.51588 0.00000
O150 O 0.06647 0.25473 0.52249 0.00000
C151 C 0.04174 0.27015 0.52200 0.00000
C152 C 0.19493 0.28961 0.53771 0.00000
Cd153 Cd 0.61729 0.84187 0.54604 0.00000
Cd154 Cd 0.69474 0.81901 0.52063 0.00000
O155 O 0.57126 0.85804 0.55668 0.00000
O156 O 0.60176 0.85595 0.63744 0.00000
O157 O 0.65941 0.80434 0.45199 0.00000
O158 O 0.61762 0.83327 0.45994 0.00000
O159 O 0.59229 0.78099 0.57177 0.00000
O160 O 0.65784 0.79686 0.58896 0.00000
O161 O 0.67365 0.89468 0.55443 0.00000
O162 O 0.72327 0.88085 0.52090 0.00000
C163 C 0.57520 0.86184 0.60995 0.00000
C164 C 0.63485 0.81601 0.43186 0.00000
C165 C 0.61895 0.77281 0.59091 0.00000
O166 O 0.69089 0.74478 0.51587 0.00000
O167 O 0.74461 0.81145 0.52248 0.00000
C168 C 0.72919 0.77130 0.52200 0.00000
C169 C 0.70975 0.90504 0.53768 0.00000
Cd170 Cd 0.15749 0.77506 0.54604 0.00000
Cd171 Cd 0.18037 0.87538 0.52062 0.00000
O172 O 0.14130 0.71285 0.55667 0.00000
O173 O 0.14341 0.74544 0.63743 0.00000
O174 O 0.19503 0.85471 0.45198 0.00000
O175 O 0.16609 0.78399 0.45993 0.00000
O176 O 0.21837 0.81095 0.57175 0.00000
O177 O 0.20253 0.86064 0.58894 0.00000
O178 O 0.10470 0.77861 0.55443 0.00000
O179 O 0.11853 0.84206 0.52090 0.00000
C180 C 0.13751 0.71298 0.60995 0.00000
C181 C 0.18335 0.81848 0.43185 0.00000
C182 C 0.22657 0.84580 0.59089 0.00000
O183 O 0.25462 0.94578 0.51585 0.00000
O184 O 0.18795 0.93282 0.52247 0.00000
C185 C 0.22810 0.95756 0.52198 0.00000
C186 C 0.09434 0.80435 0.53768 0.00000
Cd187 Cd 0.38206 0.22425 0.45393 0.00000
Cd188 Cd 0.30461 0.12392 0.47935 0.00000
O189 O 0.42809 0.28646 0.44328 0.00000
O190 O 0.39760 0.25387 0.36253 0.00000
O191 O 0.33994 0.14460 0.54799 0.00000
O192 O 0.38173 0.21532 0.54004 0.00000
O193 O 0.40705 0.18837 0.42821 0.00000
O194 O 0.34151 0.13867 0.41103 0.00000
O195 O 0.32570 0.22067 0.44554 0.00000
O196 O 0.27608 0.15722 0.47907 0.00000
C197 C 0.42416 0.28633 0.39001 0.00000
C198 C 0.36450 0.18083 0.56812 0.00000
C199 C 0.38039 0.15352 0.40907 0.00000
O200 O 0.30845 0.05353 0.48412 0.00000
O201 O 0.25473 0.06647 0.47751 0.00000
C202 C 0.27015 0.04174 0.47800 0.00000
C203 C 0.28960 0.19493 0.46229 0.00000
Cd204 Cd 0.77506 0.15749 0.45396 0.00000
Cd205 Cd 0.87538 0.18038 0.47938 0.00000
O206 O 0.71285 0.14130 0.44332 0.00000
O207 O 0.74544 0.14341 0.36256 0.00000
O208 O 0.85471 0.19503 0.54802 0.00000
O209 O 0.78399 0.16609 0.54007 0.00000
O210 O 0.81095 0.21837 0.42825 0.00000
O211 O 0.86064 0.20253 0.41106 0.00000
O212 O 0.77861 0.10470 0.44557 0.00000
O213 O 0.84206 0.11853 0.47910 0.00000
C214 C 0.71298 0.13751 0.39005 0.00000
C215 C 0.81848 0.18335 0.56815 0.00000
C216 C 0.84580 0.22657 0.40911 0.00000
O217 O 0.94578 0.25462 0.48415 0.00000
O218 O 0.93282 0.18795 0.47753 0.00000
C219 C 0.95756 0.22811 0.47802 0.00000
C220 C 0.80435 0.09434 0.46231 0.00000
Cd221 Cd 0.95062 0.50855 0.21275 0.00000
Cd222 Cd 0.02807 0.48569 0.18734 0.00000
O223 O 0.90459 0.52472 0.22339 0.00000
O224 O 0.93509 0.52263 0.30415 0.00000
O225 O 0.99274 0.47103 0.11870 0.00000
O226 O 0.95095 0.49995 0.12664 0.00000
O227 O 0.92563 0.44767 0.23848 0.00000
O228 O 0.99117 0.46354 0.25566 0.00000
O229 O 0.00699 0.56136 0.22113 0.00000
O230 O 0.05661 0.54753 0.18761 0.00000
C231 C 0.90853 0.52852 0.27666 0.00000
C232 C 0.96818 0.48269 0.09856 0.00000
C233 C 0.95229 0.43949 0.25762 0.00000
O234 O 0.02423 0.41146 0.18258 0.00000
O235 O 0.07795 0.47814 0.18919 0.00000
C236 C 0.06252 0.43798 0.18870 0.00000
C237 C 0.04308 0.57172 0.20439 0.00000
Cd238 Cd 0.49082 0.44171 0.21271 0.00000
Cd239 Cd 0.51370 0.54203 0.18730 0.00000
O240 O 0.47463 0.37950 0.22335 0.00000
O241 O 0.47673 0.41209 0.30411 0.00000
O242 O 0.52835 0.52137 0.11866 0.00000
O243 O 0.49941 0.45064 0.12661 0.00000
O244 O 0.55170 0.47760 0.23843 0.00000
O245 O 0.53585 0.52729 0.25562 0.00000
O246 O 0.43802 0.44526 0.22111 0.00000
O247 O 0.45185 0.50871 0.18758 0.00000
C248 C 0.47083 0.37963 0.27662 0.00000
C249 C 0.51668 0.48513 0.09853 0.00000
C250 C 0.55989 0.51245 0.25757 0.00000
O251 O 0.58794 0.61244 0.18254 0.00000
O252 O 0.52127 0.59947 0.18915 0.00000
C253 C 0.56142 0.62421 0.18866 0.00000
C254 C 0.42767 0.47100 0.20436 0.00000
Cd255 Cd 0.55758 0.04873 0.21273 0.00000
Cd256 Cd 0.45725 0.97128 0.18730 0.00000
O257 O 0.61980 0.09476 0.22338 0.00000
O258 O 0.58720 0.06426 0.30413 0.00000
O259 O 0.47793 0.00661 0.11866 0.00000
O260 O 0.54866 0.04840 0.12662 0.00000
O261 O 0.52171 0.07372 0.23845 0.00000
O262 O 0.47200 0.00818 0.25563 0.00000
O263 O 0.55401 0.99237 0.22111 0.00000
O264 O 0.49055 0.94274 0.18758 0.00000
C265 C 0.61966 0.09082 0.27665 0.00000
C266 C 0.51417 0.03117 0.09853 0.00000
C267 C 0.48685 0.04706 0.25758 0.00000
O268 O 0.38686 0.97512 0.18253 0.00000
O269 O 0.39980 0.92140 0.18914 0.00000
C270 C 0.37508 0.93682 0.18865 0.00000
C271 C 0.52826 0.95627 0.20436 0.00000
Cd272 Cd 0.04873 0.55758 0.78727 0.00000
Cd273 Cd 0.97128 0.45725 0.81270 0.00000
O274 O 0.09476 0.61979 0.77662 0.00000
O275 O 0.06427 0.58720 0.69587 0.00000
O276 O 0.00661 0.47793 0.88134 0.00000
O277 O 0.04841 0.54866 0.87338 0.00000
O278 O 0.07372 0.52170 0.76155 0.00000
O279 O 0.00818 0.47200 0.74437 0.00000
O280 O 0.99237 0.55400 0.77889 0.00000
O281 O 0.94275 0.49055 0.81242 0.00000
C282 C 0.09083 0.61966 0.72335 0.00000
C283 C 0.03117 0.51416 0.90147 0.00000
C284 C 0.04706 0.48685 0.74242 0.00000
O285 O 0.97512 0.38686 0.81747 0.00000
O286 O 0.92140 0.39980 0.81086 0.00000
C287 C 0.93682 0.37507 0.81135 0.00000
C288 C 0.95627 0.52826 0.79564 0.00000
Cd289 Cd 0.44171 0.49082 0.78729 0.00000
Cd290 Cd 0.54203 0.51370 0.81270 0.00000
O291 O 0.37950 0.47463 0.77665 0.00000
O292 O 0.41209 0.47673 0.69589 0.00000
O293 O 0.52137 0.52835 0.88134 0.00000
O294 O 0.45064 0.49941 0.87339 0.00000
O295 O 0.47760 0.55170 0.76157 0.00000
O296 O 0.52729 0.53585 0.74438 0.00000
O297 O 0.44526 0.43802 0.77889 0.00000
O298 O 0.50871 0.45186 0.81242 0.00000
C299 C 0.37963 0.47084 0.72338 0.00000
C300 C 0.48514 0.51668 0.90147 0.00000
C301 C 0.51245 0.55989 0.74243 0.00000
O302 O 0.61244 0.58794 0.81747 0.00000
O303 O 0.59947 0.52127 0.81085 0.00000
C304 C 0.62421 0.56142 0.81134 0.00000
C305 C 0.47100 0.42767 0.79564 0.00000
H306 H 0.26438 0.86265 0.72204 0.00000
H307 H 0.32984 0.90121 0.77675 0.00000
C308 C 0.29677 0.88180 0.64592 0.00000
C309 C 0.29093 0.87829 0.70473 0.00000
C310 C 0.32886 0.90051 0.73638 0.00000
C311 C 0.36423 0.92102 0.70231 0.00000
S312 S 0.35007 0.91324 0.62955 0.00000
H313 H 0.22040 0.00356 0.89430 0.00000
H314 H 0.17998 0.93590 0.94349 0.00000
C315 C 0.25205 0.03166 0.96866 0.00000
C316 C 0.22381 0.99990 0.93338 0.00000
C317 C 0.20051 0.96047 0.96186 0.00000
C318 C 0.21083 0.96181 0.01910 0.00000
S319 S 0.24964 0.01291 0.03826 0.00000
H320 H 0.96484 0.27755 0.97128 0.00000
H321 H 0.03546 0.31538 0.01313 0.00000
C322 C 0.96445 0.22155 0.97671 0.00000
C323 C 0.97994 0.26429 0.98245 0.00000
C324 C 0.02078 0.28615 0.00686 0.00000
C325 C 0.03694 0.26045 0.02057 0.00000
S326 S 0.00109 0.20823 0.00179 0.00000
H327 H 0.83448 0.50056 0.41442 0.00000
H328 H 0.86646 0.47209 0.34931 0.00000
C329 C 0.86276 0.55689 0.37134 0.00000
C330 C 0.85219 0.51595 0.38382 0.00000
C331 C 0.87061 0.49944 0.34598 0.00000
C332 C 0.89521 0.52734 0.30380 0.00000
S333 S 0.89615 0.57529 0.31189 0.00000
H334 H 0.17238 0.13703 0.97014 0.00000
H335 H 0.13904 0.16356 0.03608 0.00000
C336 C 0.22538 0.19535 0.96567 0.00000
C337 C 0.18548 0.16508 0.98272 0.00000
C338 C 0.16624 0.18044 0.02105 0.00000
C339 C 0.19125 0.22251 0.03422 0.00000
S340 S 0.23927 0.24364 0.99747 0.00000
H341 H 0.73625 0.01580 0.94275 0.00000
H342 H 0.70636 0.96455 0.02098 0.00000
C343 C 0.79535 0.02562 0.95986 0.00000
C344 C 0.75240 0.00845 0.96618 0.00000
C345 C 0.73510 0.97868 0.01137 0.00000
C346 C 0.76444 0.97239 0.03991 0.00000
S347 S 0.81463 0.00465 0.01082 0.00000
H348 H 0.95305 0.70656 0.98617 0.00000
H349 H 0.00309 0.73132 0.06614 0.00000
C350 C 0.97169 0.76730 0.96272 0.00000
C351 C 0.97103 0.73516 0.99445 0.00000
C352 C 0.00010 0.74953 0.04064 0.00000
C353 C 0.02364 0.79278 0.04460 0.00000
S354 S 0.00884 0.81611 0.99062 0.00000
H355 H 0.78417 0.83951 0.97764 0.00000
H356 H 0.81450 0.80622 0.91840 0.00000
C357 C 0.75066 0.78536 0.02459 0.00000
C358 C 0.77792 0.81160 0.98284 0.00000
C359 C 0.79558 0.79234 0.94867 0.00000
C360 C 0.78238 0.75129 0.96407 0.00000
S361 S 0.74672 0.73600 0.02138 0.00000
H362 H 0.03356 0.43051 0.62374 0.00000
H363 H 0.06089 0.39008 0.57480 0.00000
C364 C 0.07852 0.44841 0.68661 0.00000
C365 C 0.05670 0.42865 0.63720 0.00000
C366 C 0.07263 0.40536 0.60878 0.00000
C367 C 0.10701 0.40724 0.63573 0.00000
S368 S 0.11934 0.43788 0.69816 0.00000
H369 H 0.55744 0.66967 0.55954 0.00000
H370 H 0.51696 0.60176 0.60811 0.00000
C371 C 0.58570 0.69837 0.63540 0.00000
C372 C 0.55953 0.66597 0.59907 0.00000
C373 C 0.53620 0.62662 0.62719 0.00000
C374 C 0.54444 0.62828 0.68525 0.00000
S375 S 0.58126 0.67984 0.70556 0.00000
H376 H 0.42788 0.34476 0.43026 0.00000
H377 H 0.44866 0.39946 0.35693 0.00000
C378 C 0.43935 0.30809 0.37498 0.00000
C379 C 0.43680 0.34257 0.39326 0.00000
C380 C 0.44897 0.37429 0.35084 0.00000
C381 C 0.46132 0.36471 0.29975 0.00000
S382 S 0.45699 0.31501 0.30406 0.00000
H383 H 0.66017 0.07595 0.42230 0.00000
H384 H 0.60650 0.04280 0.34751 0.00000
C385 C 0.69133 0.13016 0.37485 0.00000
C386 C 0.66047 0.08955 0.38799 0.00000
C387 C 0.62933 0.07042 0.34474 0.00000
C388 C 0.63571 0.09620 0.29819 0.00000
S389 S 0.68169 0.14487 0.30777 0.00000
H390 H 0.43085 0.16108 0.29051 0.00000
H391 H 0.45922 0.12531 0.23258 0.00000
C392 C 0.41641 0.11856 0.35596 0.00000
C393 C 0.43149 0.13709 0.30306 0.00000
C394 C 0.44804 0.11644 0.26962 0.00000
C395 C 0.44619 0.08209 0.29659 0.00000
S396 S 0.42272 0.07477 0.36437 0.00000
H397 H 0.88880 0.26622 0.28251 0.00000
H398 H 0.92891 0.33318 0.23156 0.00000
C399 C 0.88333 0.29646 0.35330 0.00000
C400 C 0.89535 0.29226 0.29858 0.00000
C401 C 0.91845 0.33104 0.26903 0.00000
C402 C 0.92413 0.36535 0.30049 0.00000
S403 S 0.90103 0.34928 0.36849 0.00000
H404 H 0.65434 0.60448 0.24783 0.00000
H405 H 0.72496 0.63733 0.28966 0.00000
C406 C 0.63286 0.55590 0.30572 0.00000
C407 C 0.66137 0.59300 0.27906 0.00000
C408 C 0.70223 0.61208 0.30343 0.00000
C409 C 0.70547 0.59007 0.34930 0.00000
S410 S 0.65706 0.54437 0.36177 0.00000
H411 H 0.53406 0.94054 0.64262 0.00000
H412 H 0.55525 0.91024 0.56473 0.00000
C413 C 0.53517 0.89891 0.70044 0.00000
C414 C 0.53910 0.91808 0.64792 0.00000
C415 C 0.55151 0.90061 0.60288 0.00000
C416 C 0.55758 0.86811 0.62036 0.00000
S417 S 0.54690 0.85851 0.69392 0.00000
H418 H 0.13242 0.68449 0.77270 0.00000
H419 H 0.15549 0.74231 0.70381 0.00000
C420 C 0.10823 0.64099 0.70768 0.00000
C421 C 0.12818 0.68034 0.73292 0.00000
C422 C 0.14165 0.71381 0.69297 0.00000
C423 C 0.13253 0.70058 0.63668 0.00000
S424 S 0.10600 0.64549 0.63330 0.00000
H425 H 0.31821 0.42219 0.76789 0.00000
H426 H 0.26276 0.38782 0.69564 0.00000
C427 C 0.35786 0.46485 0.70835 0.00000
C428 C 0.32139 0.43111 0.72949 0.00000
C429 C 0.28924 0.41131 0.68767 0.00000
C430 C 0.30052 0.42979 0.63415 0.00000
S431 S 0.35232 0.47209 0.63546 0.00000
H432 H 0.53586 0.02624 0.90398 0.00000
H433 H 0.56534 0.07195 0.98800 0.00000
C434 C 0.48908 0.98025 0.95322 0.00000
C435 C 0.52430 0.01853 0.94098 0.00000
C436 C 0.54128 0.04504 0.98962 0.00000
C437 C 0.51912 0.02759 0.03958 0.00000
S438 S 0.47685 0.97697 0.02616 0.00000
H439 H 0.20009 0.91144 0.30950 0.00000
H440 H 0.22982 0.89114 0.38911 0.00000
C441 C 0.15676 0.84959 0.29339 0.00000
C442 C 0.18991 0.88338 0.32058 0.00000
C443 C 0.20702 0.87161 0.36679 0.00000
C444 C 0.18702 0.82875 0.37592 0.00000
S445 S 0.14669 0.80246 0.32547 0.00000
H446 H 0.17634 0.40687 0.32761 0.00000
H447 H 0.14674 0.36091 0.24384 0.00000
C448 C 0.17919 0.36015 0.37227 0.00000
C449 C 0.17106 0.37906 0.32658 0.00000
C450 C 0.15406 0.35248 0.27802 0.00000
C451 C 0.14926 0.31304 0.28569 0.00000
S452 S 0.16543 0.30857 0.35489 0.00000
H453 H 0.88255 0.68003 0.58372 0.00000
H454 H 0.91028 0.72329 0.67021 0.00000
C455 C 0.82395 0.64666 0.62017 0.00000
C456 C 0.86611 0.67663 0.61635 0.00000
C457 C 0.88210 0.70176 0.66638 0.00000
C458 C 0.85239 0.69162 0.70893 0.00000
S459 S 0.80382 0.64955 0.68686 0.00000
H460 H 0.34448 0.21689 0.74741 0.00000
H461 H 0.38746 0.24433 0.66063 0.00000
C462 C 0.31323 0.15744 0.71309 0.00000
C463 C 0.34183 0.20006 0.71553 0.00000
C464 C 0.36680 0.21590 0.66534 0.00000
C465 C 0.35792 0.18562 0.62405 0.00000
S466 S 0.31723 0.13666 0.64751 0.00000
H467 H 0.88628 0.22974 0.60779 0.00000
H468 H 0.91319 0.20486 0.68562 0.00000
C469 C 0.82576 0.18315 0.62459 0.00000
C470 C 0.86893 0.20655 0.63108 0.00000
C471 C 0.88447 0.19221 0.67628 0.00000
C472 C 0.85344 0.15791 0.70528 0.00000
S473 S 0.80407 0.14265 0.67517 0.00000
H474 H 0.70443 0.90907 0.30277 0.00000
H475 H 0.66484 0.89032 0.39298 0.00000
C476 C 0.68885 0.84765 0.28969 0.00000
C477 C 0.68988 0.88150 0.31724 0.00000
C478 C 0.66683 0.87059 0.36938 0.00000
C479 C 0.64759 0.82827 0.38219 0.00000
S480 S 0.65897 0.80159 0.32906 0.00000
H481 H 0.07065 0.56632 0.00276 0.00000
H482 H 0.03008 0.54233 0.09196 0.00000
C483 C 0.02501 0.51518 0.95922 0.00000
C484 C 0.04439 0.54158 0.00537 0.00000
C485 C 0.02081 0.52773 0.05697 0.00000
C486 C 0.98296 0.49080 0.05094 0.00000
S487 S 0.97685 0.47245 0.98010 0.00000
H488 H 0.42963 0.45190 0.95344 0.00000
H489 H 0.44684 0.42894 0.04305 0.00000
C490 C 0.48592 0.50742 0.95534 0.00000
C491 C 0.45491 0.46817 0.97351 0.00000
C492 C 0.46496 0.45484 0.02531 0.00000
C493 C 0.50388 0.48349 0.04721 0.00000
S494 S 0.52816 0.52821 0.00325 0.00000
H495 H 0.47873 0.13730 0.76399 0.00000
H496 H 0.45753 0.16874 0.84034 0.00000
C497 C 0.43712 0.07790 0.79301 0.00000
C498 C 0.45820 0.12136 0.79157 0.00000
C499 C 0.44580 0.13954 0.83568 0.00000
C500 C 0.41487 0.11029 0.87114 0.00000
S501 S 0.40146 0.05924 0.85000 0.00000
H502 H 0.40012 0.90855 0.14993 0.00000
H503 H 0.34876 0.88617 0.07172 0.00000
C504 C 0.36299 0.92230 0.20097 0.00000
C505 C 0.37479 0.90894 0.15258 0.00000
C506 C 0.34496 0.89586 0.10737 0.00000
C507 C 0.30983 0.89868 0.12068 0.00000
S508 S 0.31423 0.91872 0.19026 0.00000
H509 H 0.09735 0.49455 0.15472 0.00000
H510 H 0.12029 0.46636 0.07617 0.00000
C511 C 0.07740 0.44042 0.20145 0.00000
C512 C 0.09470 0.46775 0.15565 0.00000
C513 C 0.10811 0.45146 0.11026 0.00000
C514 C 0.10158 0.41164 0.12087 0.00000
S515 S 0.07760 0.39374 0.18803 0.00000
H516 H 0.03405 0.71950 0.53278 0.00000
H517 H 0.96460 0.68126 0.48760 0.00000
C518 C 0.03530 0.77564 0.52231 0.00000
C519 C 0.01950 0.73272 0.51905 0.00000
C520 C 0.97922 0.71058 0.49305 0.00000
C521 C 0.96351 0.73615 0.47651 0.00000
S522 S 0.99990 0.78881 0.49254 0.00000
H523 H 0.39011 0.31609 0.92945 0.00000
H524 H 0.41922 0.38754 0.89154 0.00000
C525 C 0.41023 0.29813 0.85829 0.00000
C526 C 0.40413 0.32467 0.89404 0.00000
C527 C 0.42112 0.36608 0.87214 0.00000
C528 C 0.44072 0.37189 0.81965 0.00000
S529 S 0.43732 0.32485 0.79647 0.00000
H530 H 0.61105 0.10886 0.87631 0.00000
H531 H 0.68375 0.15138 0.90974 0.00000
C532 C 0.62817 0.07688 0.82031 0.00000
C533 C 0.63331 0.10579 0.86214 0.00000
C534 C 0.67540 0.13030 0.88161 0.00000
C535 C 0.70294 0.12027 0.85535 0.00000
S536 S 0.67625 0.08018 0.80471 0.00000
H537 H 0.53332 0.82488 0.16064 0.00000
H538 H 0.49277 0.85833 0.18931 0.00000
C539 C 0.58669 0.88249 0.15133 0.00000
C540 C 0.54499 0.85416 0.16332 0.00000
C541 C 0.52156 0.87355 0.18011 0.00000
C542 C 0.54504 0.91690 0.18165 0.00000
S543 S 0.59703 0.93398 0.16082 0.00000
H544 H 0.06357 0.65068 0.26728 0.00000
H545 H 0.09279 0.72243 0.23047 0.00000
C546 C 0.07740 0.63148 0.19166 0.00000
C547 C 0.07522 0.65885 0.23039 0.00000
C548 C 0.09227 0.70043 0.20912 0.00000
C549 C 0.10803 0.70554 0.15408 0.00000
S550 S 0.10084 0.65762 0.12778 0.00000
H551 H 0.38309 0.50478 0.14281 0.00000
H552 H 0.30975 0.47344 0.11174 0.00000
C553 C 0.37099 0.44926 0.18043 0.00000
C554 C 0.36261 0.47675 0.15045 0.00000
C555 C 0.32017 0.45854 0.13231 0.00000
C556 C 0.29559 0.41684 0.14771 0.00000
S557 S 0.32554 0.40011 0.18641 0.00000
H558 H 0.97144 0.61103 0.77407 0.00000
H559 H 0.94155 0.65113 0.81721 0.00000
C560 C 0.92483 0.55627 0.80963 0.00000
C561 C 0.94712 0.59873 0.79697 0.00000
C562 C 0.92971 0.62191 0.82181 0.00000
C563 C 0.89373 0.59751 0.85338 0.00000
S564 S 0.88169 0.54488 0.85315 0.00000
H565 H 0.59590 0.51253 0.85456 0.00000
H566 H 0.64759 0.54220 0.93231 0.00000
C567 C 0.63595 0.55910 0.79950 0.00000
C568 C 0.62242 0.53675 0.85028 0.00000
C569 C 0.65242 0.55387 0.89523 0.00000
C570 C 0.68940 0.58929 0.87938 0.00000
S571 S 0.68660 0.60209 0.80759 0.00000
H572 H 0.04018 0.20662 0.52198 0.00000
H573 H 0.98941 0.18014 0.44290 0.00000
C574 C 0.02745 0.25418 0.53753 0.00000
C575 C 0.02431 0.21908 0.51087 0.00000
C576 C 0.99480 0.20368 0.46520 0.00000
C577 C 0.97473 0.22652 0.45660 0.00000
S578 S 0.99341 0.26842 0.50543 0.00000
H579 H 0.79610 0.83208 0.52874 0.00000
H580 H 0.82338 0.80844 0.44989 0.00000
C581 C 0.74521 0.77271 0.53796 0.00000
C582 C 0.78253 0.80423 0.51526 0.00000
C583 C 0.79838 0.79049 0.46972 0.00000
C584 C 0.77364 0.74825 0.45728 0.00000
S585 S 0.72941 0.72530 0.50224 0.00000
H586 H 0.20217 0.99383 0.41048 0.00000
H587 H 0.16874 0.93948 0.48435 0.00000
C588 C 0.25591 0.02499 0.45887 0.00000
C589 C 0.21553 0.99399 0.44495 0.00000
C590 C 0.19624 0.96245 0.48767 0.00000
C591 C 0.22168 0.96867 0.53459 0.00000
S592 S 0.27019 0.01500 0.52603 0.00000
H593 H 0.98993 0.37828 0.81802 0.00000
H594 H 0.96462 0.31852 0.88400 0.00000
C595 C 0.92938 0.36384 0.80025 0.00000
C596 C 0.96128 0.35985 0.82552 0.00000
C597 C 0.94661 0.32532 0.86386 0.00000
C598 C 0.90337 0.30264 0.86883 0.00000
S599 S 0.88042 0.32410 0.82423 0.00000
H600 H 0.54164 0.65550 0.06991 0.00000
H601 H 0.50752 0.60023 0.14246 0.00000
C602 C 0.58989 0.69154 0.12539 0.00000
C603 C 0.55275 0.65733 0.10681 0.00000
C604 C 0.53309 0.62528 0.14879 0.00000
C605 C 0.55504 0.63433 0.19982 0.00000
S606 S 0.60058 0.68395 0.19604 0.00000
H607 H 0.26083 0.27825 0.59425 0.00000
H608 H 0.30305 0.24915 0.55593 0.00000
C609 C 0.22103 0.25591 0.52494 0.00000
C610 C 0.25470 0.26338 0.55946 0.00000
C611 C 0.27906 0.24640 0.53733 0.00000
C612 C 0.26420 0.22543 0.48590 0.00000
S613 S 0.21958 0.22751 0.46401 0.00000
H614 H 0.84010 0.04694 0.51359 0.00000
H615 H 0.80808 0.97333 0.54368 0.00000
C616 C 0.78298 0.03753 0.48575 0.00000
C617 C 0.81131 0.02744 0.50948 0.00000
C618 C 0.79271 0.98484 0.52707 0.00000
C619 C 0.74991 0.96186 0.51750 0.00000
S620 S 0.73251 0.99353 0.48503 0.00000
loop_
_geom_bond_atom_site_label_1
_geom_bond_atom_site_label_2
_geom_bond_distance
_geom_bond_site_symmetry_2
_ccdc_geom_bond_type
Cd0 Cd1 3.358 1_565 S
Cd0 O2 2.045 . S
Cd0 O3 2.302 . S
Cd0 O5 2.009 . S
Cd0 O6 2.014 . S
Cd0 O8 1.994 1_565 S
Cd1 O4 1.935 1_545 S
Cd1 O7 1.960 1_545 S
Cd1 O9 1.947 . S
Cd1 O13 2.631 . S
Cd1 O14 1.963 . S
O2 C10 1.235 . A
O3 C10 1.258 . A
O4 C11 1.252 . A
O5 C11 1.263 . A
O6 C12 1.228 . A
O7 C12 1.235 . A
O8 C16 1.231 . A
O9 C16 1.262 . A
O13 C15 1.242 . A
O14 C15 1.274 . A
Cd17 Cd18 3.358 . S
Cd17 O19 2.045 . S
Cd17 O20 2.302 . S
Cd17 O22 2.009 . S
Cd17 O23 2.014 . S
Cd17 O25 1.994 . S
Cd18 O21 1.935 . S
Cd18 O24 1.960 . S
Cd18 O26 1.947 . S
Cd18 O30 2.631 . S
Cd18 O31 1.963 . S
O19 C27 1.235 . A
O20 C27 1.258 . A
O21 C28 1.252 . A
O22 C28 1.263 . A
O23 C29 1.228 . A
O24 C29 1.235 . A
O25 C33 1.231 . A
O26 C33 1.262 . A
O30 C32 1.242 . A
O31 C32 1.274 . A
Cd34 Cd35 3.358 . S
Cd34 O36 2.045 . S
Cd34 O37 2.302 . S
Cd34 O39 2.009 . S
Cd34 O40 2.014 . S
Cd34 O42 1.994 . S
Cd35 O38 1.935 . S
Cd35 O41 1.960 . S
Cd35 O43 1.947 . S
Cd35 O47 2.631 . S
Cd35 O48 1.963 . S
O36 C44 1.235 . A
O37 C44 1.258 . A
O38 C45 1.252 . A
O39 C45 1.263 . A
O40 C46 1.228 . A
O41 C46 1.235 . A
O42 C50 1.231 . A
O43 C50 1.262 . A
O47 C49 1.242 . A
O48 C49 1.274 . A
Cd51 Cd52 3.358 . S
Cd51 O53 2.045 . S
Cd51 O54 2.302 . S
Cd51 O56 2.009 . S
Cd51 O57 2.014 . S
Cd51 O59 1.994 . S
Cd52 O55 1.935 . S
Cd52 O58 1.960 . S
Cd52 O60 1.947 . S
Cd52 O64 2.631 . S
Cd52 O65 1.963 . S
O53 C61 1.235 . A
O54 C61 1.258 . A
O55 C62 1.252 . A
O56 C62 1.263 . A
O57 C63 1.228 . A
O58 C63 1.235 . A
O59 C67 1.231 . A
O60 C67 1.262 . A
O64 C66 1.242 . A
O65 C66 1.274 . A
Cd68 Cd69 3.358 . S
Cd68 O70 2.045 . S
Cd68 O71 2.302 . S
Cd68 O73 2.009 . S
Cd68 O74 2.014 . S
Cd68 O76 1.994 . S
Cd69 O72 1.935 . S
Cd69 O75 1.960 . S
Cd69 O77 1.947 . S
Cd69 O81 2.631 . S
Cd69 O82 1.963 . S
O70 C78 1.235 . A
O71 C78 1.258 . A
O72 C79 1.252 . A
O73 C79 1.263 . A
O74 C80 1.228 . A
O75 C80 1.235 . A
O76 C84 1.231 . A
O77 C84 1.262 . A
O81 C83 1.242 . A
O82 C83 1.274 . A
Cd85 Cd86 3.358 . S
Cd85 O87 2.045 . S
Cd85 O88 2.302 . S
Cd85 O90 2.009 . S
Cd85 O91 2.014 . S
Cd85 O93 1.994 . S
Cd86 O89 1.935 . S
Cd86 O92 1.960 . S
Cd86 O94 1.947 . S
Cd86 O98 2.631 . S
Cd86 O99 1.963 . S
O87 C95 1.235 . A
O88 C95 1.258 . A
O89 C96 1.252 . A
O90 C96 1.263 . A
O91 C97 1.228 . A
O92 C97 1.235 . A
O93 C101 1.231 . A
O94 C101 1.262 . A
O98 C100 1.242 . A
O99 C100 1.274 . A
Cd102 Cd103 3.358 . S
Cd102 O104 2.045 . S
Cd102 O105 2.302 . S
Cd102 O107 2.009 . S
Cd102 O108 2.014 . S
Cd102 O110 1.994 . S
Cd103 O106 1.935 . S
Cd103 O109 1.960 . S
Cd103 O111 1.947 . S
Cd103 O115 2.631 . S
Cd103 O116 1.963 . S
O104 C112 1.235 . A
O105 C112 1.258 . A
O106 C113 1.252 . A
O107 C113 1.263 . A
O108 C114 1.228 . A
O109 C114 1.235 . A
O110 C118 1.231 . A
O111 C118 1.262 . A
O115 C117 1.242 . A
O116 C117 1.274 . A
Cd119 Cd120 3.358 . S
Cd119 O121 2.045 . S
Cd119 O122 2.302 . S
Cd119 O124 2.009 . S
Cd119 O125 2.014 . S
Cd119 O127 1.994 . S
Cd120 O123 1.935 . S
Cd120 O126 1.960 . S
Cd120 O128 1.947 . S
Cd120 O132 2.631 . S
Cd120 O133 1.963 . S
O121 C129 1.235 . A
O122 C129 1.258 . A
O123 C130 1.252 . A
O124 C130 1.263 . A
O125 C131 1.228 . A
O126 C131 1.235 . A
O127 C135 1.231 . A
O128 C135 1.262 . A
O132 C134 1.242 . A
O133 C134 1.274 . A
Cd136 Cd137 3.358 . S
Cd136 O138 2.045 . S
Cd136 O139 2.302 . S
Cd136 O141 2.009 . S
Cd136 O142 2.014 . S
Cd136 O144 1.994 . S
Cd137 O140 1.935 . S
Cd137 O143 1.960 . S
Cd137 O145 1.947 . S
Cd137 O149 2.631 . S
Cd137 O150 1.963 . S
O138 C146 1.235 . A
O139 C146 1.258 . A
O140 C147 1.252 . A
O141 C147 1.263 . A
O142 C148 1.228 . A
O143 C148 1.235 . A
O144 C152 1.231 . A
O145 C152 1.262 . A
O149 C151 1.242 . A
O150 C151 1.274 . A
Cd153 Cd154 3.358 . S
Cd153 O155 2.045 . S
Cd153 O156 2.302 . S
Cd153 O158 2.009 . S
Cd153 O159 2.014 . S
Cd153 O161 1.994 . S
Cd154 O157 1.935 . S
Cd154 O160 1.960 . S
Cd154 O162 1.947 . S
Cd154 O166 2.631 . S
Cd154 O167 1.963 . S
O155 C163 1.235 . A
O156 C163 1.258 . A
O157 C164 1.252 . A
O158 C164 1.263 . A
O159 C165 1.228 . A
O160 C165 1.235 . A
O161 C169 1.231 . A
O162 C169 1.262 . A
O166 C168 1.242 . A
O167 C168 1.274 . A
Cd170 Cd171 3.358 . S
Cd170 O172 2.045 . S
Cd170 O173 2.302 . S
Cd170 O175 2.009 . S
Cd170 O176 2.014 . S
Cd170 O178 1.994 . S
Cd171 O174 1.935 . S
Cd171 O177 1.960 . S
Cd171 O179 1.947 . S
Cd171 O183 2.631 . S
Cd171 O184 1.963 . S
O172 C180 1.235 . A
O173 C180 1.258 . A
O174 C181 1.252 . A
O175 C181 1.263 . A
O176 C182 1.228 . A
O177 C182 1.235 . A
O178 C186 1.231 . A
O179 C186 1.262 . A
O183 C185 1.242 . A
O184 C185 1.274 . A
Cd187 Cd188 3.358 . S
Cd187 O189 2.045 . S
Cd187 O190 2.302 . S
Cd187 O192 2.009 . S
Cd187 O193 2.014 . S
Cd187 O195 1.994 . S
Cd188 O191 1.935 . S
Cd188 O194 1.960 . S
Cd188 O196 1.947 . S
Cd188 O200 2.631 . S
Cd188 O201 1.963 . S
O189 C197 1.235 . A
O190 C197 1.258 . A
O191 C198 1.252 . A
O192 C198 1.263 . A
O193 C199 1.228 . A
O194 C199 1.235 . A
O195 C203 1.231 . A
O196 C203 1.262 . A
O200 C202 1.242 . A
O201 C202 1.274 . A
Cd204 Cd205 3.358 . S
Cd204 O206 2.045 . S
Cd204 O207 2.302 . S
Cd204 O209 2.009 . S
Cd204 O210 2.014 . S
Cd204 O212 1.994 . S
Cd205 O208 1.935 . S
Cd205 O211 1.960 . S
Cd205 O213 1.947 . S
Cd205 O217 2.631 . S
Cd205 O218 1.963 . S
O206 C214 1.235 . A
O207 C214 1.258 . A
O208 C215 1.252 . A
O209 C215 1.263 . A
O210 C216 1.228 . A
O211 C216 1.235 . A
O212 C220 1.231 . A
O213 C220 1.262 . A
O217 C219 1.242 . A
O218 C219 1.274 . A
Cd221 Cd222 3.358 1_655 S
Cd221 O223 2.045 . S
Cd221 O224 2.302 . S
Cd221 O226 2.009 . S
Cd221 O227 2.014 . S
Cd221 O229 1.994 1_655 S
Cd222 O225 1.935 1_455 S
Cd222 O228 1.960 1_455 S
Cd222 O230 1.947 . S
Cd222 O234 2.631 . S
Cd222 O235 1.963 . S
O223 C231 1.235 . A
O224 C231 1.258 . A
O225 C232 1.252 . A
O226 C232 1.263 . A
O227 C233 1.228 . A
O228 C233 1.235 . A
O229 C237 1.231 . A
O230 C237 1.262 . A
O234 C236 1.242 . A
O235 C236 1.274 . A
Cd238 Cd239 3.358 . S
Cd238 O240 2.045 . S
Cd238 O241 2.302 . S
Cd238 O243 2.009 . S
Cd238 O244 2.014 . S
Cd238 O246 1.994 . S
Cd239 O242 1.935 . S
Cd239 O245 1.960 . S
Cd239 O247 1.947 . S
Cd239 O251 2.631 . S
Cd239 O252 1.963 . S
O240 C248 1.235 . A
O241 C248 1.258 . A
O242 C249 1.252 . A
O243 C249 1.263 . A
O244 C250 1.228 . A
O245 C250 1.235 . A
O246 C254 1.231 . A
O247 C254 1.262 . A
O251 C253 1.242 . A
O252 C253 1.274 . A
Cd255 Cd256 3.358 1_545 S
Cd255 O257 2.045 . S
Cd255 O258 2.302 . S
Cd255 O260 2.009 . S
Cd255 O261 2.014 . S
Cd255 O263 1.994 1_545 S
Cd256 O259 1.935 1_565 S
Cd256 O262 1.960 1_565 S
Cd256 O264 1.947 . S
Cd256 O268 2.631 . S
Cd256 O269 1.963 . S
O257 C265 1.235 . A
O258 C265 1.258 . A
O259 C266 1.252 . A
O260 C266 1.263 . A
O261 C267 1.228 . A
O262 C267 1.235 . A
O263 C271 1.231 . A
O264 C271 1.262 . A
O268 C270 1.242 . A
O269 C270 1.274 . A
Cd272 Cd273 3.358 1_455 S
Cd272 O274 2.045 . S
Cd272 O275 2.302 . S
Cd272 O277 2.009 . S
Cd272 O278 2.014 . S
Cd272 O280 1.994 1_455 S
Cd273 O276 1.935 1_655 S
Cd273 O279 1.960 1_655 S
Cd273 O281 1.947 . S
Cd273 O285 2.631 . S
Cd273 O286 1.963 . S
O274 C282 1.235 . A
O275 C282 1.258 . A
O276 C283 1.252 . A
O277 C283 1.263 . A
O278 C284 1.228 . A
O279 C284 1.235 . A
O280 C288 1.231 . A
O281 C288 1.262 . A
O285 C287 1.242 . A
O286 C287 1.274 . A
Cd289 Cd290 3.358 . S
Cd289 O291 2.045 . S
Cd289 O292 2.302 . S
Cd289 O294 2.009 . S
Cd289 O295 2.014 . S
Cd289 O297 1.994 . S
Cd290 O293 1.935 . S
Cd290 O296 1.960 . S
Cd290 O298 1.947 . S
Cd290 O302 2.631 . S
Cd290 O303 1.963 . S
O291 C299 1.235 . A
O292 C299 1.258 . A
O293 C300 1.252 . A
O294 C300 1.263 . A
O295 C301 1.228 . A
O296 C301 1.235 . A
O297 C305 1.231 . A
O298 C305 1.262 . A
O302 C304 1.242 . A
O303 C304 1.274 . A
H306 C309 0.929 . S
H307 C310 0.930 . S
C308 C309 1.367 . A
C308 S312 1.727 . A
C309 C310 1.403 . A
C310 C311 1.365 . A
C311 S312 1.734 . A
H313 C316 0.927 1_545 S
H314 C317 0.930 . S
C315 C316 1.363 1_545 A
C315 S319 1.727 1_556 A
C316 C317 1.409 . A
C317 C318 1.365 1_556 A
C318 S319 1.734 1_565 A
H320 C323 0.929 . S
H321 C324 0.930 . S
C322 C323 1.367 . A
C322 S326 1.727 1_656 A
C323 C324 1.403 1_656 A
C324 C325 1.365 . A
C325 S326 1.734 . A
H327 C330 0.929 . S
H328 C331 0.930 . S
C329 C330 1.367 . A
C329 S333 1.727 . A
C330 C331 1.403 . A
C331 C332 1.365 . A
C332 S333 1.734 . A
H334 C337 0.929 . S
H335 C338 0.930 . S
C336 C337 1.367 . A
C336 S340 1.727 . A
C337 C338 1.403 1_556 A
C338 C339 1.365 . A
C339 S340 1.734 1_554 A
H341 C344 0.929 . S
H342 C345 0.930 . S
C343 C344 1.367 . A
C343 S347 1.727 1_556 A
C344 C345 1.403 1_546 A
C345 C346 1.365 . A
C346 S347 1.734 1_565 A
H348 C351 0.929 . S
H349 C352 0.931 . S
C350 C351 1.367 . A
C350 S354 1.727 1_655 A
C351 C352 1.403 1_656 A
C352 C353 1.365 . A
C353 S354 1.734 1_554 A
H355 C358 0.929 . S
H356 C359 0.930 . S
C357 C358 1.367 1_554 A
C357 S361 1.727 . A
C358 C359 1.403 . A
C359 C360 1.365 . A
C360 S361 1.734 1_556 A
H362 C365 0.929 . S
H363 C366 0.930 . S
C364 C365 1.367 . A
C364 S368 1.727 . A
C365 C366 1.403 . A
C366 C367 1.365 . A
C367 S368 1.734 . A
H369 C372 0.929 . S
H370 C373 0.930 . S
C371 C372 1.367 . A
C371 S375 1.727 . A
C372 C373 1.403 . A
C373 C374 1.365 . A
C374 S375 1.734 . A
H376 C379 0.929 . S
H377 C380 0.930 . S
C378 C379 1.367 . A
C378 S382 1.727 . A
C379 C380 1.403 . A
C380 C381 1.365 . A
C381 S382 1.734 . A
H383 C386 0.929 . S
H384 C387 0.930 . S
C385 C386 1.367 . A
C385 S389 1.727 . A
C386 C387 1.403 . A
C387 C388 1.365 . A
C388 S389 1.734 . A
H390 C393 0.929 . S
H391 C394 0.930 . S
C392 C393 1.367 . A
C392 S396 1.727 . A
C393 C394 1.403 . A
C394 C395 1.365 . A
C395 S396 1.734 . A
H397 C400 0.929 . S
H398 C401 0.930 . S
C399 C400 1.367 . A
C399 S403 1.727 . A
C400 C401 1.403 . A
C401 C402 1.365 . A
C402 S403 1.734 . A
H404 C407 0.929 . S
H405 C408 0.930 . S
C406 C407 1.367 . A
C406 S410 1.727 . A
C407 C408 1.403 . A
C408 C409 1.365 . A
C409 S410 1.734 . A
H411 C414 0.929 . S
H412 C415 0.930 . S
C413 C414 1.367 . A
C413 S417 1.727 . A
C414 C415 1.403 . A
C415 C416 1.365 . A
C416 S417 1.734 . A
H418 C421 0.929 . S
H419 C422 0.930 . S
C420 C421 1.367 . A
C420 S424 1.727 . A
C421 C422 1.403 . A
C422 C423 1.365 . A
C423 S424 1.734 . A
H425 C428 0.929 . S
H426 C429 0.930 . S
C427 C428 1.367 . A
C427 S431 1.727 . A
C428 C429 1.403 . A
C429 C430 1.365 . A
C430 S431 1.734 . A
H432 C435 0.929 . S
H433 C436 0.930 . S
C434 C435 1.367 1_565 A
C434 S438 1.727 1_556 A
C435 C436 1.403 . A
C436 C437 1.365 1_556 A
C437 S438 1.734 1_545 A
H439 C442 0.929 . S
H440 C443 0.930 . S
C441 C442 1.367 . A
C441 S445 1.727 . A
C442 C443 1.403 . A
C443 C444 1.365 . A
C444 S445 1.734 . A
H446 C449 0.929 . S
H447 C450 0.930 . S
C448 C449 1.367 . A
C448 S452 1.727 . A
C449 C450 1.403 . A
C450 C451 1.365 . A
C451 S452 1.734 . A
H453 C456 0.929 . S
H454 C457 0.930 . S
C455 C456 1.367 . A
C455 S459 1.727 . A
C456 C457 1.403 . A
C457 C458 1.365 . A
C458 S459 1.734 . A
H460 C463 0.929 . S
H461 C464 0.930 . S
C462 C463 1.367 . A
C462 S466 1.727 . A
C463 C464 1.403 . A
C464 C465 1.365 . A
C465 S466 1.734 . A
H467 C470 0.929 . S
H468 C471 0.930 . S
C469 C470 1.367 . A
C469 S473 1.727 . A
C470 C471 1.403 . A
C471 C472 1.365 . A
C472 S473 1.734 . A
H474 C477 0.929 . S
H475 C478 0.930 . S
C476 C477 1.367 . A
C476 S480 1.727 . A
C477 C478 1.403 . A
C478 C479 1.365 . A
C479 S480 1.734 . A
H481 C484 0.929 . S
H482 C485 0.930 . S
C483 C484 1.367 1_556 A
C483 S487 1.727 1_455 A
C484 C485 1.403 . A
C485 C486 1.365 1_455 A
C486 S487 1.734 1_554 A
H488 C491 0.929 . S
H489 C492 0.930 . S
C490 C491 1.367 . A
C490 S494 1.727 1_556 A
C491 C492 1.403 1_556 A
C492 C493 1.365 . A
C493 S494 1.734 . A
H495 C498 0.929 . S
H496 C499 0.930 . S
C497 C498 1.367 . A
C497 S501 1.727 . A
C498 C499 1.403 . A
C499 C500 1.365 . A
C500 S501 1.734 . A
H502 C505 0.929 . S
H503 C506 0.930 . S
C504 C505 1.367 . A
C504 S508 1.727 . A
C505 C506 1.403 . A
C506 C507 1.365 . A
C507 S508 1.734 . A
H509 C512 0.929 . S
H510 C513 0.930 . S
C511 C512 1.367 . A
C511 S515 1.727 . A
C512 C513 1.403 . A
C513 C514 1.365 . A
C514 S515 1.734 . A
H516 C519 0.929 . S
H517 C520 0.930 . S
C518 C519 1.367 . A
C518 S522 1.723 1_455 A
C519 C520 1.403 1_455 A
C520 C521 1.365 . A
C521 S522 1.735 . A
H523 C526 0.929 . S
H524 C527 0.930 . S
C525 C526 1.367 . A
C525 S529 1.727 . A
C526 C527 1.403 . A
C527 C528 1.365 . A
C528 S529 1.734 . A
H530 C533 0.929 . S
H531 C534 0.930 . S
C532 C533 1.367 . A
C532 S536 1.727 . A
C533 C534 1.403 . A
C534 C535 1.365 . A
C535 S536 1.734 . A
H537 C540 0.929 . S
H538 C541 0.930 . S
C539 C540 1.367 . A
C539 S543 1.727 . A
C540 C541 1.403 . A
C541 C542 1.365 . A
C542 S543 1.734 . A
H544 C547 0.929 . S
H545 C548 0.930 . S
C546 C547 1.367 . A
C546 S550 1.727 . A
C547 C548 1.403 . A
C548 C549 1.365 . A
C549 S550 1.734 . A
H551 C554 0.929 . S
H552 C555 0.930 . S
C553 C554 1.367 . A
C553 S557 1.727 . A
C554 C555 1.403 . A
C555 C556 1.365 . A
C556 S557 1.734 . A
H558 C561 0.929 . S
H559 C562 0.930 . S
C560 C561 1.367 . A
C560 S564 1.727 . A
C561 C562 1.403 . A
C562 C563 1.365 . A
C563 S564 1.734 . A
H565 C568 0.929 . S
H566 C569 0.930 . S
C567 C568 1.367 . A
C567 S571 1.727 . A
C568 C569 1.403 . A
C569 C570 1.365 . A
C570 S571 1.734 . A
H572 C575 0.929 . S
H573 C576 0.930 . S
C574 C575 1.367 . A
C574 S578 1.727 1_455 A
C575 C576 1.403 1_455 A
C576 C577 1.365 . A
C577 S578 1.734 . A
H579 C582 0.929 . S
H580 C583 0.930 . S
C581 C582 1.367 . A
C581 S585 1.727 . A
C582 C583 1.403 . A
C583 C584 1.365 . A
C584 S585 1.734 . A
H586 C589 0.929 . S
H587 C590 0.930 . S
C588 C589 1.367 1_545 A
C588 S592 1.727 . A
C589 C590 1.403 . A
C590 C591 1.365 . A
C591 S592 1.734 1_565 A
H593 C596 0.929 . S
H594 C597 0.930 . S
C595 C596 1.367 . A
C595 S599 1.727 . A
C596 C597 1.403 . A
C597 C598 1.365 . A
C598 S599 1.734 . A
H600 C603 0.929 . S
H601 C604 0.930 . S
C602 C603 1.367 . A
C602 S606 1.727 . A
C603 C604 1.403 . A
C604 C605 1.365 . A
C605 S606 1.734 . A
H607 C610 0.929 . S
H608 C611 0.930 . S
C609 C610 1.367 . A
C609 S613 1.727 . A
C610 C611 1.403 . A
C611 C612 1.365 . A
C612 S613 1.734 . A
H614 C617 0.929 . S
H615 C618 0.930 . S
C616 C617 1.367 . A
C616 S620 1.727 1_545 A
C617 C618 1.403 1_545 A
C618 C619 1.365 . A
C619 S620 1.734 . A
C308 C182 2.546 . S
C311 C12 2.551 . S
C315 C80 2.559 . S
C318 C29 2.523 . S
C322 C97 2.557 . S
C325 C46 2.543 . S
C329 C61 0.807 . S
C332 C231 0.778 . S
C336 C78 0.791 . S
C339 C44 0.825 . S
C343 C95 0.756 . S
C346 C112 0.729 . S
C350 C129 0.739 . S
C353 C27 0.765 . S
C357 C114 2.547 . S
C360 C131 2.542 . S
C364 C284 2.550 . S
C367 C148 2.553 . S
C371 C165 2.559 . S
C374 C301 2.523 . S
C378 C197 0.783 . S
C381 C248 0.714 . S
C385 C214 0.776 . S
C388 C265 0.714 . S
C392 C199 2.546 . S
C395 C267 2.547 . S
C399 C216 2.548 . S
C402 C233 2.553 . S
C406 C250 2.561 . S
C409 C63 2.532 . S
C413 C10 0.737 . S
C416 C163 0.815 . S
C420 C282 0.800 . S
C423 C180 0.730 . S
C427 C299 0.787 . S
C430 C146 0.716 . S
C434 C11 1.252 . S
C437 C266 1.385 . S
C441 C28 1.362 . S
C444 C181 1.329 . S
C448 C147 1.380 . S
C451 C45 1.246 . S
C455 C62 1.257 . S
C458 C130 1.343 . S
C462 C79 1.259 . S
C465 C198 1.337 . S
C469 C215 1.328 . S
C472 C96 1.393 . S
C476 C113 1.307 . S
C479 C164 1.231 . S
C483 C283 1.353 . S
C486 C232 1.192 . S
C490 C300 1.290 . S
C493 C249 1.261 . S
C497 C15 0.712 . S
C500 C83 0.715 . S
C504 C270 0.565 . S
C507 C32 0.837 . S
C511 C236 0.581 . S
C514 C49 0.840 . S
C518 C186 1.890 . S
C521 C67 1.870 . S
C525 C84 1.908 . S
C528 C305 1.841 . S
C532 C16 1.875 . S
C535 C101 1.908 . S
C539 C118 1.890 . S
C542 C271 1.887 . S
C546 C237 1.909 . S
C549 C33 1.839 . S
C553 C254 1.881 . S
C556 C50 1.900 . S
C560 C288 1.899 . S
C563 C135 1.859 . S
C567 C304 0.547 . S
C570 C134 0.832 . S
C574 C151 0.658 . S
C577 C219 0.820 . S
C581 C168 0.668 . S
C584 C66 0.810 . S
C588 C202 0.719 . S
C591 C185 0.629 . S
C595 C287 0.441 . S
C598 C100 0.493 . S
C602 C117 0.716 . S
C605 C253 0.583 . S
C609 C152 1.909 . S
C612 C203 1.843 . S
C616 C220 1.884 . S
C619 C169 1.895 . S
