# Generated by pormake.
# Topology sgn, (3)-cn, num edge types: 1
# Building blocks:
#     Node 0, Type 0, BuildingBlock: N102, # of connection points: 6
#     Node 1, Type 0, BuildingBlock: N102, # of connection points: 6
#     Node 2, Type 0, BuildingBlock: N102, # of connection points: 6
#     Node 3, Type 0, BuildingBlock: N102, # of connection points: 6
#     Node 4, Type 0, BuildingBlock: N102, # of connection points: 6
#     Node 5, Type 0, BuildingBlock: N102, # of connection points: 6
#     Node 6, Type 0, BuildingBlock: N102, # of connection points: 6
#     Node 7, Type 0, BuildingBlock: N102, # of connection points: 6
#     Node 8, Type 0, BuildingBlock: N102, # of connection points: 6
#     Node 9, Type 0, BuildingBlock: N102, # of connection points: 6
#     Node 10, Type 0, BuildingBlock: N102, # of connection points: 6
#     Node 11, Type 0, BuildingBlock: N102, # of connection points: 6
#     Node 12, Type 0, BuildingBlock: N102, # of connection points: 6
#     Node 13, Type 0, BuildingBlock: N102, # of connection points: 6
#     Node 14, Type 0, BuildingBlock: N102, # of connection points: 6
#     Node 15, Type 0, BuildingBlock: N102, # of connection points: 6
#     Node 16, Type 0, BuildingBlock: N102, # of connection points: 6
#     Node 17, Type 0, BuildingBlock: N102, # of connection points: 6
#     Node 18, Type 0, BuildingBlock: N102, # of connection points: 6
#     Node 19, Type 0, BuildingBlock: N102, # of connection points: 6
#     Node 20, Type 0, BuildingBlock: N102, # of connection points: 6
#     Node 21, Type 0, BuildingBlock: N102, # of connection points: 6
#     Node 22, Type 0, BuildingBlock: N102, # of connection points: 6
#     Node 23, Type 0, BuildingBlock: N102, # of connection points: 6
#     Edge 24, Type (0, 0), None
#     Edge 25, Type (0, 0), None
#     Edge 26, Type (0, 0), None
#     Edge 27, Type (0, 0), None
#     Edge 28, Type (0, 0), None
#     Edge 29, Type (0, 0), None
#     Edge 30, Type (0, 0), None
#     Edge 31, Type (0, 0), None
#     Edge 32, Type (0, 0), None
#     Edge 33, Type (0, 0), None
#     Edge 34, Type (0, 0), None
#     Edge 35, Type (0, 0), None
#     Edge 36, Type (0, 0), None
#     Edge 37, Type (0, 0), None
#     Edge 38, Type (0, 0), None
#     Edge 39, Type (0, 0), None
#     Edge 40, Type (0, 0), None
#     Edge 41, Type (0, 0), None
#     Edge 42, Type (0, 0), None
#     Edge 43, Type (0, 0), None
#     Edge 44, Type (0, 0), None
#     Edge 45, Type (0, 0), None
#     Edge 46, Type (0, 0), None
#     Edge 47, Type (0, 0), None
#     Edge 48, Type (0, 0), None
#     Edge 49, Type (0, 0), None
#     Edge 50, Type (0, 0), None
#     Edge 51, Type (0, 0), None
#     Edge 52, Type (0, 0), None
#     Edge 53, Type (0, 0), None
#     Edge 54, Type (0, 0), None
#     Edge 55, Type (0, 0), None
#     Edge 56, Type (0, 0), None
#     Edge 57, Type (0, 0), None
#     Edge 58, Type (0, 0), None
#     Edge 59, Type (0, 0), None
# Relax obj value: 0.021
# Max RMSD: 0.219
# Mean RMSD: 0.120
data_sgn+N102+E0
_symmetry_space_group_name_H-M    P1
_symmetry_Int_Tables_number       1
_symmetry_cell_setting            triclinic
loop_
_symmetry_equiv_pos_as_xyz
'x, y, z'
_cell_length_a     28.093
_cell_length_b     45.032
_cell_length_c     30.818
_cell_angle_alpha  89.779
_cell_angle_beta   90.645
_cell_angle_gamma  89.538
loop_
_atom_site_label
_atom_site_type_symbol
_atom_site_fract_x
_atom_site_fract_y
_atom_site_fract_z
_atom_type_partial_charge
O0 O 0.70728 0.62715 0.50951 0.00000
Be1 Be 0.71145 0.56175 0.50235 0.00000
Be2 Be 0.58952 0.60473 0.53025 0.00000
O3 O 0.74772 0.53490 0.49061 0.00000
Be4 Be 0.67296 0.61279 0.47205 0.00000
O5 O 0.78156 0.55736 0.43585 0.00000
O6 O 0.53973 0.62257 0.52323 0.00000
Be7 Be 0.62802 0.55370 0.56055 0.00000
O8 O 0.49759 0.59458 0.56647 0.00000
O9 O 0.64814 0.57561 0.59860 0.00000
O10 O 0.73950 0.58444 0.53487 0.00000
O11 O 0.67196 0.63534 0.43098 0.00000
O12 O 0.73611 0.61762 0.40007 0.00000
H13 H 0.68746 0.57171 0.43523 0.00000
H14 H 0.56048 0.55944 0.52381 0.00000
O15 O 0.61549 0.52213 0.58286 0.00000
O16 O 0.54304 0.53432 0.60225 0.00000
H17 H 0.67449 0.52623 0.52760 0.00000
H18 H 0.60119 0.62340 0.46990 0.00000
O19 O 0.61592 0.61832 0.57325 0.00000
O20 O 0.68998 0.57996 0.46278 0.00000
O21 O 0.58608 0.56992 0.53526 0.00000
O22 O 0.67139 0.54673 0.53010 0.00000
O23 O 0.62075 0.61387 0.49024 0.00000
C24 C 0.77933 0.53669 0.46100 0.00000
C25 C 0.50149 0.61636 0.54364 0.00000
C26 C 0.70445 0.63596 0.40206 0.00000
C27 C 0.57637 0.51709 0.60258 0.00000
C28 C 0.73733 0.61288 0.53347 0.00000
C29 C 0.63824 0.60331 0.60259 0.00000
O30 O 0.59702 0.36947 0.72213 0.00000
Be31 Be 0.49235 0.36495 0.71491 0.00000
Be32 Be 0.56379 0.43052 0.65590 0.00000
O33 O 0.44865 0.34390 0.72904 0.00000
Be34 Be 0.57582 0.36544 0.67292 0.00000
O35 O 0.48499 0.30155 0.71649 0.00000
O36 O 0.59385 0.44801 0.61942 0.00000
Be37 Be 0.48031 0.43003 0.69789 0.00000
O38 O 0.54914 0.48818 0.61825 0.00000
O39 O 0.51398 0.44033 0.73864 0.00000
O40 O 0.52716 0.36906 0.75728 0.00000
O41 O 0.61293 0.34486 0.64640 0.00000
O42 O 0.58355 0.30212 0.66691 0.00000
H43 H 0.51050 0.34123 0.65453 0.00000
H44 H 0.49218 0.44028 0.62863 0.00000
O45 O 0.42957 0.44705 0.70206 0.00000
O46 O 0.45058 0.48760 0.66783 0.00000
H47 H 0.43585 0.39394 0.70447 0.00000
H48 H 0.59479 0.39487 0.62452 0.00000
O49 O 0.58384 0.44074 0.70350 0.00000
O50 O 0.52301 0.35393 0.67541 0.00000
O51 O 0.50801 0.43498 0.65422 0.00000
O52 O 0.46870 0.39625 0.70572 0.00000
O53 O 0.57852 0.39689 0.65048 0.00000
C54 C 0.45136 0.31545 0.73029 0.00000
C55 C 0.58445 0.47471 0.60720 0.00000
C56 C 0.61374 0.31640 0.64861 0.00000
C57 C 0.42208 0.47376 0.68888 0.00000
C58 C 0.57280 0.36890 0.75714 0.00000
C59 C 0.55851 0.44620 0.73692 0.00000
O60 O 0.78027 0.35108 0.05864 0.00000
Be61 Be 0.73062 0.34233 0.97467 0.00000
Be62 Be 0.81423 0.41304 0.99598 0.00000
O63 O 0.69691 0.31892 0.94935 0.00000
Be64 Be 0.81468 0.34806 0.01644 0.00000
O65 O 0.73449 0.27878 0.97202 0.00000
O66 O 0.86163 0.43319 0.99990 0.00000
Be67 Be 0.73017 0.40731 0.95421 0.00000
O68 O 0.83246 0.47132 0.96284 0.00000
O69 O 0.70944 0.41744 0.00128 0.00000
O70 O 0.70993 0.34629 0.02369 0.00000
O71 O 0.86234 0.33019 0.03155 0.00000
O72 O 0.83374 0.28554 0.02133 0.00000
H73 H 0.79962 0.32183 0.95741 0.00000
H74 H 0.79894 0.42073 0.92627 0.00000
O75 O 0.69621 0.42191 0.91692 0.00000
O76 O 0.73322 0.46456 0.91352 0.00000
H77 H 0.70521 0.36918 0.92481 0.00000
H78 H 0.86526 0.38008 0.00434 0.00000
O79 O 0.77979 0.42224 0.03624 0.00000
O80 O 0.78532 0.33421 0.97764 0.00000
O81 O 0.78476 0.41514 0.95215 0.00000
O82 O 0.72161 0.37285 0.95060 0.00000
O83 O 0.83219 0.38039 0.00555 0.00000
C84 C 0.70142 0.29064 0.95306 0.00000
C85 C 0.86384 0.45986 0.98453 0.00000
C86 C 0.86493 0.30178 0.03431 0.00000
C87 C 0.70034 0.44872 0.90328 0.00000
C88 C 0.73492 0.34810 0.05863 0.00000
C89 C 0.73439 0.42529 0.03433 0.00000
O90 O 0.80301 0.43834 0.24232 0.00000
Be91 Be 0.78530 0.45513 0.33337 0.00000
Be92 Be 0.78524 0.51600 0.23745 0.00000
O93 O 0.77928 0.44072 0.38120 0.00000
Be94 Be 0.75135 0.45393 0.25138 0.00000
O95 O 0.73662 0.40266 0.36031 0.00000
O96 O 0.76617 0.53674 0.19777 0.00000
Be97 Be 0.81919 0.51720 0.31943 0.00000
O98 O 0.79342 0.57869 0.22367 0.00000
O99 O 0.86854 0.50731 0.29567 0.00000
O100 O 0.83143 0.43934 0.31093 0.00000
O101 O 0.71246 0.43837 0.21986 0.00000
O102 O 0.69653 0.40124 0.26351 0.00000
H103 H 0.71028 0.45074 0.31200 0.00000
H104 H 0.76186 0.54521 0.29079 0.00000
O105 O 0.83298 0.53910 0.35911 0.00000
O106 O 0.83350 0.58010 0.32046 0.00000
H107 H 0.79412 0.49262 0.37108 0.00000
H108 H 0.72947 0.49035 0.21499 0.00000
O109 O 0.84012 0.50631 0.22706 0.00000
O110 O 0.74105 0.45275 0.30160 0.00000
O111 O 0.78325 0.53004 0.28424 0.00000
O112 O 0.79940 0.48842 0.34200 0.00000
O113 O 0.75474 0.48685 0.23415 0.00000
C114 C 0.75837 0.41595 0.38817 0.00000
C115 C 0.77477 0.56461 0.19480 0.00000
C116 C 0.69233 0.41362 0.22870 0.00000
C117 C 0.84081 0.56694 0.35427 0.00000
C118 C 0.83434 0.43125 0.27120 0.00000
C119 C 0.87459 0.50497 0.25464 0.00000
O120 O 0.85318 0.57403 0.45535 0.00000
Be121 Be 0.84784 0.63835 0.43630 0.00000
Be122 Be 0.88599 0.60759 0.55452 0.00000
O123 O 0.83757 0.66145 0.39683 0.00000
Be124 Be 0.90296 0.59215 0.46163 0.00000
O125 O 0.87711 0.63665 0.34760 0.00000
O126 O 0.91915 0.59500 0.59390 0.00000
Be127 Be 0.83087 0.65379 0.52920 0.00000
O128 O 0.89367 0.62624 0.64307 0.00000
O129 O 0.78848 0.62960 0.53587 0.00000
O130 O 0.80706 0.61270 0.43415 0.00000
O131 O 0.94604 0.57053 0.44668 0.00000
O132 O 0.94218 0.58211 0.37751 0.00000
H133 H 0.92472 0.63183 0.42454 0.00000
H134 H 0.89890 0.65532 0.56591 0.00000
O135 O 0.81068 0.68592 0.54405 0.00000
O136 O 0.82860 0.68079 0.61316 0.00000
H137 H 0.83586 0.67678 0.47121 0.00000
H138 H 0.94080 0.58882 0.51943 0.00000
O139 O 0.83460 0.59094 0.55707 0.00000
O140 O 0.89857 0.62304 0.43749 0.00000
O141 O 0.87744 0.64226 0.55316 0.00000
O142 O 0.83814 0.65680 0.47872 0.00000
O143 O 0.91065 0.59601 0.51204 0.00000
C144 C 0.85101 0.65696 0.35773 0.00000
C145 C 0.91694 0.60465 0.63296 0.00000
C146 C 0.95822 0.56709 0.40699 0.00000
C147 C 0.80974 0.69452 0.58369 0.00000
C148 C 0.81385 0.58482 0.44052 0.00000
C149 C 0.79370 0.60316 0.55085 0.00000
O150 O 0.32739 0.85672 0.52917 0.00000
Be151 Be 0.27833 0.84390 0.44609 0.00000
Be152 Be 0.35455 0.91832 0.46295 0.00000
O153 O 0.24699 0.81856 0.42229 0.00000
Be154 Be 0.36179 0.85400 0.48693 0.00000
O155 O 0.28872 0.78056 0.44686 0.00000
O156 O 0.39977 0.94038 0.46466 0.00000
Be157 Be 0.27109 0.90821 0.42211 0.00000
O158 O 0.36656 0.97636 0.42654 0.00000
O159 O 0.24961 0.91869 0.46874 0.00000
O160 O 0.25754 0.84826 0.49500 0.00000
O161 O 0.41124 0.83845 0.50266 0.00000
O162 O 0.38726 0.79249 0.49508 0.00000
H163 H 0.34917 0.82574 0.42947 0.00000
H164 H 0.33814 0.92363 0.39299 0.00000
O165 O 0.23551 0.92049 0.38429 0.00000
O166 O 0.26802 0.96443 0.37832 0.00000
H167 H 0.24997 0.86842 0.39499 0.00000
H168 H 0.40888 0.88766 0.47275 0.00000
O169 O 0.31946 0.92714 0.50292 0.00000
O170 O 0.33373 0.83804 0.44911 0.00000
O171 O 0.32472 0.91814 0.41925 0.00000
O172 O 0.26607 0.87339 0.42044 0.00000
O173 O 0.37587 0.88668 0.47417 0.00000
C174 C 0.25442 0.79061 0.42751 0.00000
C175 C 0.39915 0.96672 0.44862 0.00000
C176 C 0.41677 0.81027 0.50695 0.00000
C177 C 0.23680 0.94707 0.36918 0.00000
C178 C 0.28246 0.85195 0.52964 0.00000
C179 C 0.27386 0.92834 0.50116 0.00000
O180 O 0.56207 0.98094 0.69496 0.00000
Be181 Be 0.60986 0.02230 0.75523 0.00000
Be182 Be 0.50189 0.97069 0.79380 0.00000
O183 O 0.65350 0.04554 0.75761 0.00000
Be184 Be 0.58756 0.96559 0.73748 0.00000
O185 O 0.70408 0.01829 0.72105 0.00000
O186 O 0.47384 0.94200 0.81194 0.00000
Be187 Be 0.52419 0.02740 0.81155 0.00000
O188 O 0.43283 0.96591 0.86110 0.00000
O189 O 0.48692 0.03398 0.77148 0.00000
O190 O 0.58073 0.02840 0.70981 0.00000
O191 O 0.60962 0.93392 0.72268 0.00000
O192 O 0.67776 0.95133 0.70009 0.00000
H193 H 0.65164 0.98193 0.77189 0.00000
H194 H 0.52125 0.98969 0.85760 0.00000
O195 O 0.51772 0.05362 0.84687 0.00000
O196 O 0.45915 0.03287 0.88205 0.00000
H197 H 0.59169 0.04539 0.81060 0.00000
H198 H 0.54923 0.93741 0.77681 0.00000
O199 O 0.46826 0.98652 0.75663 0.00000
O200 O 0.62358 0.98830 0.75835 0.00000
O201 O 0.51689 0.99465 0.82848 0.00000
O202 O 0.57564 0.03202 0.79289 0.00000
O203 O 0.54630 0.95741 0.76954 0.00000
C204 C 0.69338 0.04139 0.73857 0.00000
C205 C 0.44160 0.94348 0.84104 0.00000
C206 C 0.65001 0.93107 0.70404 0.00000
C207 C 0.48497 0.05380 0.87557 0.00000
C208 C 0.56376 0.00849 0.68449 0.00000
C209 C 0.46200 0.01455 0.75138 0.00000
O210 O 0.17777 0.11940 0.98412 0.00000
Be211 Be 0.17548 0.05592 0.96025 0.00000
Be212 Be 0.06397 0.09606 0.01695 0.00000
O213 O 0.20694 0.03057 0.93655 0.00000
Be214 Be 0.13609 0.11016 0.94941 0.00000
O215 O 0.23202 0.05892 0.88361 0.00000
O216 O 0.01510 0.11495 0.02225 0.00000
Be217 Be 0.10336 0.04182 0.02779 0.00000
O218 O 0.97933 0.08264 0.06389 0.00000
O219 O 0.13176 0.05856 0.06715 0.00000
O220 O 0.21074 0.07401 0.99320 0.00000
O221 O 0.12941 0.13731 0.91521 0.00000
O222 O 0.18551 0.12296 0.87081 0.00000
H223 H 0.14047 0.07407 0.90113 0.00000
H224 H 0.03071 0.05260 0.00391 0.00000
O225 O 0.09263 0.00821 0.04359 0.00000
O226 O 0.02584 0.01860 0.07669 0.00000
H227 H 0.14094 0.01832 0.98171 0.00000
H228 H 0.06594 0.12159 0.96106 0.00000
O229 O 0.09880 0.10395 0.05808 0.00000
O230 O 0.14859 0.07883 0.92960 0.00000
O231 O 0.05878 0.06126 0.01370 0.00000
O232 O 0.13995 0.03820 0.98972 0.00000
O233 O 0.08812 0.10956 0.97546 0.00000
C234 C 0.23278 0.03558 0.90329 0.00000
C235 C 0.98071 0.10678 0.04649 0.00000
C236 C 0.15616 0.14108 0.88219 0.00000
C237 C 0.05734 0.00127 0.06758 0.00000
C238 C 0.21056 0.10216 0.99990 0.00000
C239 C 0.12490 0.08541 0.07945 0.00000
O240 O 0.11777 0.86042 0.19587 0.00000
Be241 Be 0.01420 0.84960 0.19815 0.00000
Be242 Be 0.06838 0.91870 0.13251 0.00000
O243 O 0.97576 0.82613 0.21629 0.00000
Be244 Be 0.09215 0.85473 0.14878 0.00000
O245 O 0.01689 0.78601 0.20077 0.00000
O246 O 0.09150 0.93762 0.09335 0.00000
Be247 Be 0.99043 0.91357 0.18187 0.00000
O248 O 0.04097 0.97496 0.09597 0.00000
O249 O 0.02651 0.92617 0.21937 0.00000
O250 O 0.05253 0.85612 0.23719 0.00000
O251 O 0.12917 0.83624 0.11914 0.00000
O252 O 0.10892 0.79207 0.14249 0.00000
H253 H 0.02934 0.82656 0.13651 0.00000
H254 H 0.99316 0.92392 0.11175 0.00000
O255 O 0.93809 0.92752 0.19050 0.00000
O256 O 0.94894 0.96889 0.15425 0.00000
H257 H 0.95275 0.87501 0.19267 0.00000
H258 H 0.10117 0.88479 0.09868 0.00000
O259 O 0.09174 0.93046 0.17806 0.00000
O260 O 0.04198 0.84013 0.15611 0.00000
O261 O 0.01238 0.91980 0.13584 0.00000
O262 O 0.98501 0.87929 0.19093 0.00000
O263 O 0.08756 0.88604 0.12599 0.00000
C264 C 0.98297 0.79796 0.21747 0.00000
C265 C 0.07678 0.96357 0.08186 0.00000
C266 C 0.13460 0.80795 0.12145 0.00000
C267 C 0.92515 0.95358 0.17789 0.00000
C268 C 0.09766 0.85869 0.23294 0.00000
C269 C 0.06943 0.93466 0.21361 0.00000
O270 O 0.32386 0.18167 0.96442 0.00000
Be271 Be 0.37261 0.12733 0.93401 0.00000
Be272 Be 0.43524 0.18298 0.01860 0.00000
O273 O 0.36402 0.09836 0.90402 0.00000
Be274 Be 0.33862 0.15765 0.00224 0.00000
O275 O 0.29107 0.08995 0.92526 0.00000
O276 O 0.45026 0.19818 0.06422 0.00000
Be277 Be 0.46923 0.15265 0.95037 0.00000
O278 O 0.52716 0.19816 0.05259 0.00000
O279 O 0.45811 0.18402 0.92524 0.00000
O280 O 0.35231 0.15629 0.90732 0.00000
O281 O 0.29713 0.15804 0.03829 0.00000
O282 O 0.25094 0.12575 0.00581 0.00000
H283 H 0.34301 0.10890 0.99451 0.00000
H284 H 0.49006 0.14745 0.01942 0.00000
O285 O 0.51716 0.13851 0.92995 0.00000
O286 O 0.56729 0.16235 0.97204 0.00000
H287 H 0.44230 0.11342 0.92598 0.00000
H288 H 0.37758 0.17115 0.05588 0.00000
O289 O 0.42966 0.20940 0.98234 0.00000
O290 O 0.34969 0.12671 0.98052 0.00000
O291 O 0.47001 0.15825 0.00010 0.00000
O292 O 0.42839 0.13071 0.93653 0.00000
O293 O 0.38367 0.17060 0.02629 0.00000
C294 C 0.32426 0.08460 0.90170 0.00000
C295 C 0.49318 0.20520 0.07422 0.00000
C296 C 0.25814 0.14359 0.03441 0.00000
C297 C 0.55930 0.14621 0.94150 0.00000
C298 C 0.32882 0.17805 0.92346 0.00000
C299 C 0.44357 0.20813 0.94290 0.00000
O300 O 0.93008 0.66047 0.44403 0.00000
Be301 Be 0.96360 0.59848 0.43449 0.00000
Be302 Be 0.03946 0.65862 0.50161 0.00000
O303 O 0.94758 0.56689 0.41436 0.00000
Be304 Be 0.93739 0.64187 0.48931 0.00000
O305 O 0.87295 0.56981 0.43423 0.00000
O306 O 0.05776 0.67882 0.54173 0.00000
Be307 Be 0.06566 0.61523 0.44679 0.00000
O308 O 0.13379 0.66892 0.53411 0.00000
O309 O 0.06378 0.64249 0.41163 0.00000
O310 O 0.95201 0.62415 0.39816 0.00000
O311 O 0.89600 0.65228 0.52223 0.00000
O312 O 0.84201 0.62103 0.49895 0.00000
H313 H 0.92834 0.59347 0.49787 0.00000
H314 H 0.08367 0.61896 0.51659 0.00000
O315 O 0.10934 0.59343 0.43385 0.00000
O316 O 0.16473 0.61769 0.46940 0.00000
H317 H 0.02861 0.57659 0.43456 0.00000
H318 H 0.97871 0.65920 0.53892 0.00000
O319 O 0.04184 0.67881 0.45750 0.00000
O320 O 0.94008 0.60763 0.47880 0.00000
O321 O 0.06718 0.62849 0.49412 0.00000
O322 O 0.01951 0.59629 0.43852 0.00000
O323 O 0.98503 0.65337 0.51063 0.00000
C324 C 0.90458 0.55749 0.41467 0.00000
C325 C 0.10188 0.68263 0.55121 0.00000
C326 C 0.85360 0.64189 0.52129 0.00000
C327 C 0.15286 0.59823 0.44459 0.00000
C328 C 0.93462 0.65002 0.40564 0.00000
C329 C 0.05584 0.66991 0.42025 0.00000
O330 O 0.93970 0.70980 0.26221 0.00000
Be331 Be 0.83964 0.69332 0.24509 0.00000
Be332 Be 0.88535 0.71596 0.36457 0.00000
O333 O 0.80380 0.68438 0.20583 0.00000
Be334 Be 0.90006 0.73545 0.27284 0.00000
O335 O 0.83027 0.71691 0.15893 0.00000
O336 O 0.89939 0.73640 0.40582 0.00000
Be337 Be 0.82492 0.67383 0.33682 0.00000
O338 O 0.85955 0.71093 0.45394 0.00000
O339 O 0.87302 0.65320 0.33943 0.00000
O340 O 0.88913 0.67454 0.23899 0.00000
O341 O 0.92272 0.76729 0.26044 0.00000
O342 O 0.90161 0.76665 0.19169 0.00000
H343 H 0.83096 0.74201 0.23893 0.00000
H344 H 0.80857 0.71235 0.37854 0.00000
O345 O 0.78048 0.65349 0.35122 0.00000
O346 O 0.78821 0.66119 0.42118 0.00000
H347 H 0.78459 0.67529 0.28028 0.00000
H348 H 0.89963 0.75550 0.33311 0.00000
O349 O 0.92359 0.68846 0.36266 0.00000
O350 O 0.85158 0.72737 0.24955 0.00000
O351 O 0.83326 0.70309 0.36378 0.00000
O352 O 0.81563 0.68068 0.28723 0.00000
O353 O 0.89512 0.73611 0.32373 0.00000
C354 C 0.80538 0.69594 0.16775 0.00000
C355 C 0.88712 0.73048 0.44487 0.00000
C356 C 0.92292 0.77789 0.22173 0.00000
C357 C 0.76959 0.64853 0.39090 0.00000
C358 C 0.93133 0.68451 0.24486 0.00000
C359 C 0.91385 0.66136 0.35381 0.00000
O360 O 0.58599 0.68327 0.62188 0.00000
Be361 Be 0.48763 0.70700 0.62345 0.00000
Be362 Be 0.55811 0.69671 0.51150 0.00000
O363 O 0.44461 0.71394 0.65654 0.00000
Be364 Be 0.54642 0.66390 0.59523 0.00000
O365 O 0.45345 0.67342 0.69566 0.00000
O366 O 0.57882 0.68111 0.46829 0.00000
Be367 Be 0.49933 0.73980 0.53972 0.00000
O368 O 0.55628 0.71632 0.42296 0.00000
O369 O 0.54960 0.75526 0.55381 0.00000
O370 O 0.53679 0.71934 0.64550 0.00000
O371 O 0.56029 0.62913 0.60100 0.00000
O372 O 0.52285 0.62254 0.66234 0.00000
H373 H 0.47022 0.65993 0.61135 0.00000
H374 H 0.48801 0.70985 0.48391 0.00000
O375 O 0.46313 0.76593 0.52383 0.00000
O376 O 0.48687 0.76720 0.45628 0.00000
H377 H 0.44604 0.73479 0.58488 0.00000
H378 H 0.55796 0.65273 0.53114 0.00000
O379 O 0.59879 0.71919 0.53020 0.00000
O380 O 0.49504 0.67346 0.61029 0.00000
O381 O 0.50959 0.71431 0.50601 0.00000
O382 O 0.47691 0.72738 0.58273 0.00000
O383 O 0.55424 0.67068 0.54561 0.00000
C384 C 0.43485 0.69742 0.68922 0.00000
C385 C 0.57763 0.69339 0.43064 0.00000
C386 C 0.54919 0.61359 0.63433 0.00000
C387 C 0.46329 0.77722 0.48554 0.00000
C388 C 0.57747 0.70623 0.64511 0.00000
C389 C 0.59136 0.74519 0.54566 0.00000
O390 O 0.07214 0.33370 0.10274 0.00000
Be391 Be 0.17201 0.31503 0.11819 0.00000
Be392 Be 0.11470 0.31762 0.99798 0.00000
O393 O 0.21137 0.31149 0.15670 0.00000
Be394 Be 0.11227 0.35397 0.07896 0.00000
O395 O 0.19315 0.35285 0.19029 0.00000
O396 O 0.09765 0.33051 0.95115 0.00000
Be397 Be 0.17443 0.27868 0.03721 0.00000
O398 O 0.12955 0.29489 0.91246 0.00000
O399 O 0.12478 0.26130 0.04690 0.00000
O400 O 0.12213 0.30111 0.13557 0.00000
O401 O 0.09380 0.38813 0.07949 0.00000
O402 O 0.12262 0.39882 0.14397 0.00000
H403 H 0.18524 0.36232 0.10340 0.00000
H404 H 0.18893 0.30700 0.98016 0.00000
O405 O 0.21521 0.25387 0.02836 0.00000
O406 O 0.20008 0.24892 0.95878 0.00000
H407 H 0.22108 0.28800 0.08766 0.00000
H408 H 0.10734 0.36214 0.01296 0.00000
O409 O 0.07479 0.29389 0.01407 0.00000
O410 O 0.16239 0.34757 0.10085 0.00000
O411 O 0.16541 0.30230 0.00010 0.00000
O412 O 0.18994 0.29376 0.08118 0.00000
O413 O 0.11135 0.34499 0.02956 0.00000
C414 C 0.21513 0.32964 0.18854 0.00000
C415 C 0.10482 0.31695 0.91524 0.00000
C416 C 0.09893 0.40538 0.11222 0.00000
C417 C 0.22102 0.24120 0.99155 0.00000
C418 C 0.08041 0.31212 0.12910 0.00000
C419 C 0.08329 0.26895 0.03292 0.00000
O420 O 0.61806 0.83881 0.63011 0.00000
Be421 Be 0.71626 0.81711 0.64624 0.00000
Be422 Be 0.66206 0.82467 0.52525 0.00000
O423 O 0.75443 0.81144 0.68523 0.00000
Be424 Be 0.66010 0.85867 0.60841 0.00000
O425 O 0.73816 0.85221 0.72106 0.00000
O426 O 0.64701 0.83933 0.47898 0.00000
Be427 Be 0.71822 0.78311 0.56309 0.00000
O428 O 0.67746 0.80407 0.43867 0.00000
O429 O 0.66720 0.76680 0.57071 0.00000
O430 O 0.66506 0.80403 0.66177 0.00000
O431 O 0.64390 0.89321 0.61077 0.00000
O432 O 0.67186 0.90127 0.67640 0.00000
H433 H 0.73299 0.86438 0.63474 0.00000
H434 H 0.73597 0.81263 0.50819 0.00000
O435 O 0.75753 0.75755 0.55343 0.00000
O436 O 0.74377 0.75501 0.48334 0.00000
H437 H 0.76424 0.78974 0.61495 0.00000
H438 H 0.65732 0.86885 0.54292 0.00000
O439 O 0.62020 0.80158 0.53905 0.00000
O440 O 0.70923 0.85034 0.63081 0.00000
O441 O 0.71167 0.80800 0.52726 0.00000
O442 O 0.73365 0.79649 0.60825 0.00000
O443 O 0.65977 0.85116 0.55848 0.00000
C444 C 0.75862 0.82853 0.71825 0.00000
C445 C 0.65415 0.82664 0.44238 0.00000
C446 C 0.64938 0.90935 0.64466 0.00000
C447 C 0.76339 0.74582 0.51597 0.00000
C448 C 0.62425 0.81630 0.65522 0.00000
C449 C 0.62658 0.77592 0.55645 0.00000
O450 O 0.38729 0.23844 0.77720 0.00000
Be451 Be 0.29865 0.21544 0.73776 0.00000
Be452 Be 0.30283 0.24528 0.86063 0.00000
O453 O 0.27749 0.20290 0.69236 0.00000
Be454 Be 0.34279 0.26201 0.77446 0.00000
O455 O 0.31328 0.23503 0.65042 0.00000
O456 O 0.30103 0.26804 0.90116 0.00000
Be457 Be 0.25868 0.19871 0.82394 0.00000
O458 O 0.25115 0.24219 0.94010 0.00000
O459 O 0.30658 0.18115 0.84085 0.00000
O460 O 0.35034 0.19947 0.74649 0.00000
O461 O 0.36437 0.29455 0.76458 0.00000
O462 O 0.36540 0.29001 0.69374 0.00000
H463 H 0.28615 0.26313 0.72405 0.00000
H464 H 0.22533 0.23767 0.85520 0.00000
O465 O 0.21415 0.17639 0.82894 0.00000
O466 O 0.19903 0.18720 0.89678 0.00000
H467 H 0.23724 0.19559 0.75970 0.00000
H468 H 0.32130 0.28426 0.82957 0.00000
O469 O 0.34353 0.22012 0.87156 0.00000
O470 O 0.30448 0.25019 0.74104 0.00000
O471 O 0.25471 0.22936 0.84836 0.00000
O472 O 0.26420 0.20307 0.77346 0.00000
O473 O 0.32228 0.26433 0.82174 0.00000
C474 C 0.28931 0.21303 0.65506 0.00000
C475 C 0.27796 0.26292 0.93607 0.00000
C476 C 0.37518 0.30362 0.72644 0.00000
C477 C 0.19209 0.17234 0.86468 0.00000
C478 C 0.38776 0.21212 0.76149 0.00000
C479 C 0.34030 0.19225 0.86383 0.00000
O480 O 0.62081 0.51529 0.72107 0.00000
Be481 Be 0.54842 0.55826 0.75121 0.00000
Be482 Be 0.59405 0.49053 0.82681 0.00000
O483 O 0.52076 0.58837 0.73633 0.00000
Be484 Be 0.63534 0.53409 0.76445 0.00000
O485 O 0.58271 0.61009 0.70781 0.00000
O486 O 0.62638 0.47176 0.86123 0.00000
Be487 Be 0.50714 0.51469 0.81358 0.00000
O488 O 0.56730 0.45701 0.90174 0.00000
O489 O 0.50287 0.48781 0.77829 0.00000
O490 O 0.54807 0.53552 0.71000 0.00000
O491 O 0.69181 0.54081 0.76238 0.00000
O492 O 0.68533 0.58156 0.72344 0.00000
H493 H 0.61181 0.57979 0.77986 0.00000
H494 H 0.54898 0.51349 0.87478 0.00000
O495 O 0.45533 0.51932 0.83518 0.00000
O496 O 0.46469 0.48554 0.88611 0.00000
H497 H 0.49286 0.55801 0.79468 0.00000
H498 H 0.65835 0.51200 0.81989 0.00000
O499 O 0.57560 0.46759 0.78937 0.00000
O500 O 0.60125 0.56197 0.76817 0.00000
O501 O 0.54983 0.50772 0.84584 0.00000
O502 O 0.51559 0.54399 0.78669 0.00000
O503 O 0.62993 0.51221 0.80410 0.00000
C504 C 0.54040 0.60934 0.71484 0.00000
C505 C 0.60904 0.45636 0.89230 0.00000
C506 C 0.70946 0.56234 0.74059 0.00000
C507 C 0.43997 0.50336 0.86655 0.00000
C508 C 0.58287 0.51897 0.69809 0.00000
C509 C 0.53384 0.46723 0.77217 0.00000
O510 O 0.12765 0.00804 0.19538 0.00000
Be511 Be 0.05182 0.04628 0.23125 0.00000
Be512 Be 0.11301 0.98075 0.30192 0.00000
O513 O 0.01877 0.07479 0.21901 0.00000
Be514 Be 0.14263 0.02720 0.23829 0.00000
O515 O 0.07475 0.10036 0.18724 0.00000
O516 O 0.15052 0.96362 0.33370 0.00000
Be517 Be 0.02220 0.99990 0.29489 0.00000
O518 O 0.09728 0.94504 0.37745 0.00000
O519 O 0.01922 0.97315 0.25917 0.00000
O520 O 0.05166 0.02401 0.18949 0.00000
O521 O 0.19747 0.03724 0.23285 0.00000
O522 O 0.18196 0.07783 0.19554 0.00000
H523 H 0.11370 0.07118 0.25646 0.00000
H524 H 0.06862 0.00010 0.35330 0.00000
O525 O 0.97182 0.00118 0.31986 0.00000
O526 O 0.99007 0.96757 0.36915 0.00000
H527 H 0.00010 0.04233 0.27816 0.00000
H528 H 0.17303 0.00600 0.29155 0.00000
O529 O 0.09522 0.95718 0.26505 0.00000
O530 O 0.10497 0.05292 0.24495 0.00000
O531 O 0.06808 0.99508 0.32420 0.00000
O532 O 0.02414 0.02979 0.26834 0.00000
O533 O 0.14360 0.00468 0.27759 0.00000
C534 C 0.03345 0.09705 0.19691 0.00000
C535 C 0.13803 0.94694 0.36538 0.00000
C536 C 0.21008 0.05993 0.21059 0.00000
C537 C 0.96140 0.98407 0.35170 0.00000
C538 C 0.08771 0.00970 0.17494 0.00000
C539 C 0.05252 0.95453 0.25051 0.00000
O540 O 0.33927 0.95413 0.70366 0.00000
Be541 Be 0.28977 0.97790 0.78035 0.00000
Be542 Be 0.32857 0.03093 0.68172 0.00000
O543 O 0.26558 0.96730 0.82522 0.00000
Be544 Be 0.28796 0.97030 0.69377 0.00000
O545 O 0.23091 0.92781 0.79846 0.00000
O546 O 0.32638 0.04844 0.63574 0.00000
Be547 Be 0.33038 0.03853 0.76831 0.00000
O548 O 0.34486 0.09217 0.66180 0.00000
O549 O 0.38525 0.02689 0.76293 0.00000
O550 O 0.34078 0.96050 0.77612 0.00000
O551 O 0.26202 0.95234 0.65483 0.00000
O552 O 0.22877 0.91883 0.69624 0.00000
H553 H 0.22655 0.97182 0.73800 0.00000
H554 H 0.28835 0.06410 0.71967 0.00000
O555 O 0.32994 0.06340 0.80613 0.00000
O556 O 0.34700 0.10115 0.76402 0.00000
H557 H 0.28622 0.01812 0.81241 0.00000
H558 H 0.28277 0.00364 0.64756 0.00000
O559 O 0.38373 0.02053 0.69047 0.00000
O560 O 0.25959 0.97303 0.73751 0.00000
O561 O 0.31016 0.04853 0.72250 0.00000
O562 O 0.30174 0.01167 0.78762 0.00000
O563 O 0.29936 0.00167 0.67372 0.00000
C564 C 0.24188 0.94321 0.82906 0.00000
C565 C 0.33714 0.07592 0.63134 0.00000
C566 C 0.23836 0.92842 0.66065 0.00000
C567 C 0.34067 0.09071 0.79976 0.00000
C568 C 0.35779 0.94936 0.74129 0.00000
C569 C 0.40602 0.02137 0.72698 0.00000
O570 O 0.34524 0.07482 0.94821 0.00000
Be571 Be 0.34004 0.13917 0.92933 0.00000
Be572 Be 0.35549 0.10819 0.05136 0.00000
O573 O 0.33655 0.16239 0.88915 0.00000
Be574 Be 0.39188 0.09394 0.96294 0.00000
O575 O 0.38687 0.13889 0.84725 0.00000
O576 O 0.38090 0.09596 0.09542 0.00000
Be577 Be 0.30365 0.15341 0.01775 0.00000
O578 O 0.34405 0.12621 0.13969 0.00000
O579 O 0.26201 0.12827 0.01690 0.00000
O580 O 0.30185 0.11267 0.92008 0.00000
O581 O 0.43857 0.07338 0.95529 0.00000
O582 O 0.44808 0.08549 0.88693 0.00000
H583 H 0.41845 0.13439 0.93066 0.00000
H584 H 0.36307 0.15607 0.06522 0.00000
O585 O 0.27888 0.18497 0.02928 0.00000
O586 O 0.28285 0.17961 0.10001 0.00000
H587 H 0.31893 0.17702 0.96197 0.00000
H588 H 0.41763 0.09090 0.02597 0.00000
O589 O 0.30539 0.09042 0.04503 0.00000
O590 O 0.39062 0.12493 0.93886 0.00000
O591 O 0.34531 0.14267 0.04897 0.00000
O592 O 0.32083 0.15702 0.96950 0.00000
O593 O 0.38903 0.09752 0.01372 0.00000
C594 C 0.35795 0.15853 0.85301 0.00000
C595 C 0.37027 0.10521 0.13346 0.00000
C596 C 0.45878 0.07056 0.91838 0.00000
C597 C 0.26943 0.19318 0.06808 0.00000
C598 C 0.30890 0.08490 0.92717 0.00000
C599 C 0.26568 0.10182 0.03218 0.00000
O600 O 0.64706 0.25664 0.08193 0.00000
Be601 Be 0.66291 0.26065 0.17668 0.00000
Be602 Be 0.62168 0.33171 0.10573 0.00000
O603 O 0.67639 0.24033 0.21858 0.00000
Be604 Be 0.60075 0.26675 0.11009 0.00000
O605 O 0.63215 0.20235 0.20029 0.00000
O606 O 0.58722 0.35528 0.08063 0.00000
Be607 Be 0.68384 0.32561 0.17233 0.00000
O608 O 0.61859 0.39525 0.10922 0.00000
O609 O 0.72200 0.32266 0.13289 0.00000
O610 O 0.69908 0.25153 0.13766 0.00000
O611 O 0.55406 0.25233 0.08753 0.00000
O612 O 0.55876 0.20955 0.12167 0.00000
H613 H 0.58524 0.25312 0.17744 0.00000
H614 H 0.61709 0.35198 0.17082 0.00000
O615 O 0.70956 0.34328 0.21168 0.00000
O616 O 0.69198 0.38805 0.18784 0.00000
H617 H 0.68185 0.29341 0.22031 0.00000
H618 H 0.56350 0.30503 0.09352 0.00000
O619 O 0.66997 0.32776 0.07716 0.00000
O620 O 0.60994 0.25873 0.15938 0.00000
O621 O 0.63600 0.33962 0.15396 0.00000
O622 O 0.67633 0.29323 0.19050 0.00000
O623 O 0.59456 0.30126 0.10289 0.00000
C624 C 0.66167 0.21366 0.22378 0.00000
C625 C 0.59166 0.38354 0.08366 0.00000
C626 C 0.54075 0.22553 0.09425 0.00000
C627 C 0.71257 0.37168 0.21319 0.00000
C628 C 0.68773 0.24865 0.09749 0.00000
C629 C 0.71258 0.32580 0.09232 0.00000
O630 O 0.05775 0.17428 0.10577 0.00000
Be631 Be 0.96056 0.19650 0.12307 0.00000
Be632 Be 0.00982 0.18916 0.00145 0.00000
O633 O 0.92404 0.20224 0.16251 0.00000
Be634 Be 0.01454 0.15478 0.08465 0.00000
O635 O 0.94108 0.16120 0.19823 0.00000
O636 O 0.02279 0.17462 0.95504 0.00000
Be637 Be 0.95583 0.23088 0.03988 0.00000
O638 O 0.99130 0.21024 0.91504 0.00000
O639 O 0.00740 0.24684 0.04683 0.00000
O640 O 0.01257 0.20919 0.13792 0.00000
O641 O 0.03028 0.12013 0.08689 0.00000
O642 O 0.00481 0.11195 0.15287 0.00000
H643 H 0.94262 0.14940 0.11189 0.00000
H644 H 0.93543 0.20173 0.98529 0.00000
O645 O 0.91655 0.25673 0.03066 0.00000
O646 O 0.92757 0.25950 0.96040 0.00000
H647 H 0.91177 0.22431 0.09232 0.00000
H648 H 0.01456 0.14488 0.01916 0.00000
O649 O 0.05258 0.21193 0.01467 0.00000
O650 O 0.96645 0.16331 0.10764 0.00000
O651 O 0.96056 0.20613 0.00404 0.00000
O652 O 0.94199 0.21740 0.08526 0.00000
O653 O 0.01300 0.16251 0.03471 0.00000
C654 C 0.92089 0.18503 0.19562 0.00000
C655 C 0.01440 0.18751 0.91851 0.00000
C656 C 0.02589 0.10387 0.12088 0.00000
C657 C 0.90939 0.26867 0.99325 0.00000
C658 C 0.05292 0.19670 0.13089 0.00000
C659 C 0.04730 0.23754 0.03209 0.00000
O660 O 0.21477 0.75679 0.55487 0.00000
Be661 Be 0.22952 0.76623 0.64890 0.00000
Be662 Be 0.17237 0.82980 0.57189 0.00000
O663 O 0.24753 0.74913 0.69247 0.00000
Be664 Be 0.16667 0.76387 0.58246 0.00000
O665 O 0.21256 0.70684 0.67815 0.00000
O666 O 0.13287 0.84896 0.54497 0.00000
Be667 Be 0.23522 0.83216 0.63833 0.00000
O668 O 0.15465 0.89252 0.56950 0.00000
O669 O 0.27361 0.83095 0.59890 0.00000
O670 O 0.26737 0.75876 0.61047 0.00000
O671 O 0.12384 0.74448 0.56172 0.00000
O672 O 0.13836 0.70405 0.59972 0.00000
H673 H 0.15448 0.75189 0.65108 0.00000
H674 H 0.16315 0.85222 0.63499 0.00000
O675 O 0.25656 0.85361 0.67572 0.00000
O676 O 0.22885 0.89531 0.64794 0.00000
H677 H 0.24068 0.80219 0.68921 0.00000
H678 H 0.12101 0.79769 0.56272 0.00000
O679 O 0.22101 0.82897 0.54330 0.00000
O680 O 0.17761 0.75886 0.63231 0.00000
O681 O 0.18470 0.84096 0.61915 0.00000
O682 O 0.23526 0.80024 0.65954 0.00000
O683 O 0.15258 0.79713 0.57214 0.00000
C684 C 0.23913 0.72166 0.70027 0.00000
C685 C 0.13073 0.87744 0.54533 0.00000
C686 C 0.11688 0.71707 0.57104 0.00000
C687 C 0.25298 0.88203 0.67456 0.00000
C688 C 0.25681 0.75319 0.57076 0.00000
C689 C 0.26358 0.83148 0.55821 0.00000
O690 O 0.99691 0.47266 0.16937 0.00000
Be691 Be 0.05143 0.52255 0.20642 0.00000
Be692 Be 0.97699 0.46708 0.28202 0.00000
O693 O 0.08702 0.54896 0.19250 0.00000
Be694 Be 0.03903 0.46338 0.20396 0.00000
O695 O 0.12869 0.52259 0.14655 0.00000
O696 O 0.96429 0.43838 0.31138 0.00000
Be697 Be 0.98938 0.52626 0.28448 0.00000
O698 O 0.93667 0.46333 0.36681 0.00000
O699 O 0.93934 0.52624 0.25690 0.00000
O700 O 0.00728 0.52218 0.17143 0.00000
O701 O 0.06263 0.43250 0.18766 0.00000
O702 O 0.11406 0.45273 0.14365 0.00000
H703 H 0.10632 0.48748 0.21510 0.00000
H704 H 0.01189 0.49313 0.33390 0.00000
O705 O 0.98869 0.55483 0.31622 0.00000
O706 O 0.95131 0.53319 0.36971 0.00000
H707 H 0.04743 0.54900 0.26101 0.00000
H708 H 0.02382 0.43633 0.25632 0.00000
O709 O 0.92896 0.47671 0.25484 0.00000
O710 O 0.07393 0.49039 0.20984 0.00000
O711 O 0.99666 0.49500 0.30705 0.00000
O712 O 0.02984 0.53299 0.25088 0.00000
O713 O 0.01354 0.45514 0.24764 0.00000
C714 C 0.11879 0.54615 0.16318 0.00000
C715 C 0.94375 0.44006 0.34828 0.00000
C716 C 0.09468 0.43104 0.15839 0.00000
C717 C 0.96786 0.55516 0.35307 0.00000
C718 C 0.98791 0.49896 0.15528 0.00000
C719 C 0.91422 0.50336 0.24799 0.00000
loop_
_geom_bond_atom_site_label_1
_geom_bond_atom_site_label_2
_geom_bond_distance
_geom_bond_site_symmetry_2
_ccdc_geom_bond_type
O0 C28 1.282 . A
O0 Be4 1.635 . S
Be1 O3 1.619 . S
Be1 O10 1.635 . S
Be1 O20 1.578 . S
Be1 O22 1.577 . S
Be2 O6 1.619 . S
Be2 O19 1.635 . S
Be2 O21 1.578 . S
Be2 O23 1.577 . S
O3 C24 1.283 . S
Be4 O11 1.619 . S
Be4 O20 1.578 . S
Be4 O23 1.577 . S
O5 C24 1.211 . D
O6 C25 1.283 . S
Be7 O9 1.635 . S
Be7 O15 1.620 . S
Be7 O21 1.578 . S
Be7 O22 1.577 . S
O8 C25 1.211 . D
O9 C29 1.282 . A
O10 C28 1.282 . A
O11 C26 1.283 . S
O12 C26 1.211 . D
H13 O20 0.930 . S
H14 O21 0.930 . S
O15 C27 1.283 . S
O16 C27 1.211 . D
H17 O22 0.930 . S
H18 O23 0.930 . S
O19 C29 1.282 . A
O30 C58 1.282 . A
O30 Be34 1.635 . S
Be31 O33 1.619 . S
Be31 O40 1.635 . S
Be31 O50 1.578 . S
Be31 O52 1.577 . S
Be32 O36 1.619 . S
Be32 O49 1.635 . S
Be32 O51 1.578 . S
Be32 O53 1.577 . S
O33 C54 1.283 . S
Be34 O41 1.619 . S
Be34 O50 1.578 . S
Be34 O53 1.577 . S
O35 C54 1.211 . D
O36 C55 1.283 . S
Be37 O39 1.635 . S
Be37 O45 1.620 . S
Be37 O51 1.578 . S
Be37 O52 1.577 . S
O38 C55 1.211 . D
O39 C59 1.282 . A
O40 C58 1.282 . A
O41 C56 1.283 . S
O42 C56 1.211 . D
H43 O50 0.930 . S
H44 O51 0.930 . S
O45 C57 1.283 . S
O46 C57 1.211 . D
H47 O52 0.930 . S
H48 O53 0.930 . S
O49 C59 1.282 . A
O60 C88 1.282 . A
O60 Be64 1.635 . S
Be61 O63 1.619 . S
Be61 O70 1.635 1_556 S
Be61 O80 1.578 . S
Be61 O82 1.577 . S
Be62 O66 1.621 . S
Be62 O79 1.635 1_556 S
Be62 O81 1.578 . S
Be62 O83 1.577 1_556 S
O63 C84 1.283 . S
Be64 O71 1.619 . S
Be64 O80 1.578 1_554 S
Be64 O83 1.577 . S
O65 C84 1.211 . D
O66 C85 1.292 . S
Be67 O69 1.635 1_556 S
Be67 O75 1.620 . S
Be67 O81 1.578 . S
Be67 O82 1.577 . S
O68 C85 1.211 . D
O69 C89 1.282 . A
O70 C88 1.282 . A
O71 C86 1.283 . S
O72 C86 1.211 . D
H73 O80 0.930 . S
H74 O81 0.930 . S
O75 C87 1.283 . S
O76 C87 1.211 . D
H77 O82 0.930 . S
H78 O83 0.930 . S
O79 C89 1.282 . A
O90 C118 1.282 . A
O90 Be94 1.635 . S
Be91 O93 1.619 . S
Be91 O100 1.635 . S
Be91 O110 1.578 . S
Be91 O112 1.577 . S
Be92 O96 1.619 . S
Be92 O109 1.635 . S
Be92 O111 1.578 . S
Be92 O113 1.577 . S
O93 C114 1.283 . S
Be94 O101 1.619 . S
Be94 O110 1.578 . S
Be94 O113 1.577 . S
O95 C114 1.211 . D
O96 C115 1.283 . S
Be97 O99 1.635 . S
Be97 O105 1.620 . S
Be97 O111 1.578 . S
Be97 O112 1.577 . S
O98 C115 1.211 . D
O99 C119 1.282 . A
O100 C118 1.282 . A
O101 C116 1.283 . S
O102 C116 1.211 . D
H103 O110 0.930 . S
H104 O111 0.930 . S
O105 C117 1.283 . S
O106 C117 1.211 . D
H107 O112 0.930 . S
H108 O113 0.930 . S
O109 C119 1.282 . A
O120 C148 1.282 . A
O120 Be124 1.635 . S
Be121 O123 1.619 . S
Be121 O130 1.635 . S
Be121 O140 1.578 . S
Be121 O142 1.577 . S
Be122 O126 1.619 . S
Be122 O139 1.635 . S
Be122 O141 1.578 . S
Be122 O143 1.577 . S
O123 C144 1.283 . S
Be124 O131 1.619 . S
Be124 O140 1.578 . S
Be124 O143 1.577 . S
O125 C144 1.211 . D
O126 C145 1.283 . S
Be127 O129 1.635 . S
Be127 O135 1.620 . S
Be127 O141 1.578 . S
Be127 O142 1.577 . S
O128 C145 1.211 . D
O129 C149 1.282 . A
O130 C148 1.282 . A
O131 C146 1.283 . S
O132 C146 1.211 . D
H133 O140 0.930 . S
H134 O141 0.930 . S
O135 C147 1.283 . S
O136 C147 1.211 . D
H137 O142 0.930 . S
H138 O143 0.930 . S
O139 C149 1.282 . A
O150 C178 1.282 . A
O150 Be154 1.635 . S
Be151 O153 1.619 . S
Be151 O160 1.635 . S
Be151 O170 1.578 . S
Be151 O172 1.577 . S
Be152 O156 1.619 . S
Be152 O169 1.635 . S
Be152 O171 1.578 . S
Be152 O173 1.577 . S
O153 C174 1.283 . S
Be154 O161 1.619 . S
Be154 O170 1.578 . S
Be154 O173 1.577 . S
O155 C174 1.211 . D
O156 C175 1.283 . S
Be157 O159 1.635 . S
Be157 O165 1.620 . S
Be157 O171 1.578 . S
Be157 O172 1.577 . S
O158 C175 1.211 . D
O159 C179 1.282 . A
O160 C178 1.282 . A
O161 C176 1.283 . S
O162 C176 1.211 . D
H163 O170 0.930 . S
H164 O171 0.930 . S
O165 C177 1.283 . S
O166 C177 1.211 . D
H167 O172 0.930 . S
H168 O173 0.930 . S
O169 C179 1.282 . A
O180 C208 1.282 1_565 A
O180 Be184 1.635 . S
Be181 O183 1.619 . S
Be181 O190 1.635 . S
Be181 O200 1.578 1_545 S
Be181 O202 1.577 . S
Be182 O186 1.619 . S
Be182 O199 1.635 . S
Be182 O201 1.578 . S
Be182 O203 1.577 . S
O183 C204 1.283 . S
Be184 O191 1.619 . S
Be184 O200 1.578 . S
Be184 O203 1.577 . S
O185 C204 1.211 . D
O186 C205 1.283 . S
Be187 O189 1.635 . S
Be187 O195 1.620 . S
Be187 O201 1.578 1_545 S
Be187 O202 1.577 . S
O188 C205 1.211 . D
O189 C209 1.282 . A
O190 C208 1.282 . A
O191 C206 1.283 . S
O192 C206 1.211 . D
H193 O200 0.930 . S
H194 O201 0.930 . S
O195 C207 1.283 . S
O196 C207 1.211 . D
H197 O202 0.930 . S
H198 O203 0.930 . S
O199 C209 1.282 1_565 A
O210 C238 1.290 . A
O210 Be214 1.635 . S
Be211 O213 1.619 . S
Be211 O220 1.635 . S
Be211 O230 1.578 . S
Be211 O232 1.577 . S
Be212 O216 1.619 . S
Be212 O229 1.635 . S
Be212 O231 1.578 . S
Be212 O233 1.577 1_554 S
O213 C234 1.283 . S
Be214 O221 1.619 . S
Be214 O230 1.578 . S
Be214 O233 1.577 . S
O215 C234 1.211 . D
O216 C235 1.283 1_455 S
Be217 O219 1.635 . S
Be217 O225 1.620 . S
Be217 O231 1.578 . S
Be217 O232 1.577 1_554 S
O218 C235 1.211 . D
O219 C239 1.282 . A
O220 C238 1.285 . A
O221 C236 1.283 . S
O222 C236 1.211 . D
H223 O230 0.930 . S
H224 O231 0.930 . S
O225 C237 1.283 . S
O226 C237 1.211 . D
H227 O232 0.930 . S
H228 O233 0.930 . S
O229 C239 1.282 . A
O240 C268 1.282 . A
O240 Be244 1.635 . S
Be241 O243 1.619 1_455 S
Be241 O250 1.635 . S
Be241 O260 1.578 . S
Be241 O262 1.577 1_455 S
Be242 O246 1.619 . S
Be242 O259 1.635 . S
Be242 O261 1.578 . S
Be242 O263 1.577 . S
O243 C264 1.283 . S
Be244 O251 1.619 . S
Be244 O260 1.578 . S
Be244 O263 1.577 . S
O245 C264 1.211 1_455 D
O246 C265 1.283 . S
Be247 O249 1.635 1_655 S
Be247 O255 1.620 . S
Be247 O261 1.578 1_655 S
Be247 O262 1.577 . S
O248 C265 1.211 . D
O249 C269 1.282 . A
O250 C268 1.282 . A
O251 C266 1.283 . S
O252 C266 1.211 . D
H253 O260 0.930 . S
H254 O261 0.930 1_655 S
O255 C267 1.283 . S
O256 C267 1.211 . D
H257 O262 0.930 . S
H258 O263 0.930 . S
O259 C269 1.282 . A
O270 C298 1.282 . A
O270 Be274 1.635 1_556 S
Be271 O273 1.619 . S
Be271 O280 1.635 . S
Be271 O290 1.578 . S
Be271 O292 1.577 . S
Be272 O276 1.619 . S
Be272 O289 1.635 1_554 S
Be272 O291 1.587 . S
Be272 O293 1.577 . S
O273 C294 1.283 . S
Be274 O281 1.619 . S
Be274 O290 1.578 1_554 S
Be274 O293 1.577 . S
O275 C294 1.211 . D
O276 C295 1.283 . S
Be277 O279 1.635 . S
Be277 O285 1.620 . S
Be277 O291 1.554 1_556 S
Be277 O292 1.577 . S
O278 C295 1.211 . D
O279 C299 1.282 . A
O280 C298 1.282 . A
O281 C296 1.283 . S
O282 C296 1.211 . D
H283 O290 0.930 . S
H284 O291 0.945 . S
O285 C297 1.283 . S
O286 C297 1.211 . D
H287 O292 0.930 . S
H288 O293 0.930 . S
O289 C299 1.282 . A
O300 C328 1.282 . A
O300 Be304 1.635 . S
Be301 O303 1.619 . S
Be301 O310 1.635 . S
Be301 O320 1.578 . S
Be301 O322 1.577 1_655 S
Be302 O306 1.619 . S
Be302 O319 1.635 . S
Be302 O321 1.578 . S
Be302 O323 1.577 1_455 S
O303 C324 1.283 . S
Be304 O311 1.619 . S
Be304 O320 1.578 . S
Be304 O323 1.577 . S
O305 C324 1.211 . D
O306 C325 1.283 . S
Be307 O309 1.635 . S
Be307 O315 1.620 . S
Be307 O321 1.578 . S
Be307 O322 1.577 . S
O308 C325 1.211 . D
O309 C329 1.282 . A
O310 C328 1.282 . A
O311 C326 1.283 . S
O312 C326 1.211 . D
H313 O320 0.930 . S
H314 O321 0.930 . S
O315 C327 1.283 . S
O316 C327 1.211 . D
H317 O322 0.930 . S
H318 O323 0.930 . S
O319 C329 1.282 . A
O330 C358 1.282 . A
O330 Be334 1.635 . S
Be331 O333 1.619 . S
Be331 O340 1.635 . S
Be331 O350 1.578 . S
Be331 O352 1.577 . S
Be332 O336 1.619 . S
Be332 O349 1.635 . S
Be332 O351 1.578 . S
Be332 O353 1.577 . S
O333 C354 1.283 . S
Be334 O341 1.619 . S
Be334 O350 1.578 . S
Be334 O353 1.577 . S
O335 C354 1.211 . D
O336 C355 1.283 . S
Be337 O339 1.635 . S
Be337 O345 1.620 . S
Be337 O351 1.578 . S
Be337 O352 1.577 . S
O338 C355 1.211 . D
O339 C359 1.282 . A
O340 C358 1.282 . A
O341 C356 1.283 . S
O342 C356 1.211 . D
H343 O350 0.930 . S
H344 O351 0.930 . S
O345 C357 1.283 . S
O346 C357 1.211 . D
H347 O352 0.930 . S
H348 O353 0.930 . S
O349 C359 1.282 . A
O360 C388 1.282 . A
O360 Be364 1.635 . S
Be361 O363 1.619 . S
Be361 O370 1.635 . S
Be361 O380 1.578 . S
Be361 O382 1.577 . S
Be362 O366 1.619 . S
Be362 O379 1.635 . S
Be362 O381 1.578 . S
Be362 O383 1.577 . S
O363 C384 1.283 . S
Be364 O371 1.619 . S
Be364 O380 1.578 . S
Be364 O383 1.577 . S
O365 C384 1.211 . D
O366 C385 1.283 . S
Be367 O369 1.635 . S
Be367 O375 1.620 . S
Be367 O381 1.578 . S
Be367 O382 1.577 . S
O368 C385 1.211 . D
O369 C389 1.282 . A
O370 C388 1.282 . A
O371 C386 1.283 . S
O372 C386 1.211 . D
H373 O380 0.930 . S
H374 O381 0.930 . S
O375 C387 1.283 . S
O376 C387 1.211 . D
H377 O382 0.930 . S
H378 O383 0.930 . S
O379 C389 1.282 . A
O390 C418 1.282 . A
O390 Be394 1.635 . S
Be391 O393 1.619 . S
Be391 O400 1.635 . S
Be391 O410 1.578 . S
Be391 O412 1.577 . S
Be392 O396 1.619 . S
Be392 O409 1.635 1_556 S
Be392 O411 1.578 1_556 S
Be392 O413 1.577 1_556 S
O393 C414 1.283 . S
Be394 O401 1.619 . S
Be394 O410 1.578 . S
Be394 O413 1.577 . S
O395 C414 1.211 . D
O396 C415 1.283 . S
Be397 O399 1.635 . S
Be397 O405 1.620 . S
Be397 O411 1.576 . S
Be397 O412 1.577 . S
O398 C415 1.211 . D
O399 C419 1.282 . A
O400 C418 1.282 . A
O401 C416 1.283 . S
O402 C416 1.211 . D
H403 O410 0.930 . S
H404 O411 0.932 1_556 S
O405 C417 1.283 1_554 S
O406 C417 1.211 . D
H407 O412 0.930 . S
H408 O413 0.930 . S
O409 C419 1.282 . A
O420 C448 1.282 . A
O420 Be424 1.635 . S
Be421 O423 1.619 . S
Be421 O430 1.635 . S
Be421 O440 1.578 . S
Be421 O442 1.577 . S
Be422 O426 1.619 . S
Be422 O439 1.635 . S
Be422 O441 1.578 . S
Be422 O443 1.577 . S
O423 C444 1.283 . S
Be424 O431 1.619 . S
Be424 O440 1.578 . S
Be424 O443 1.577 . S
O425 C444 1.211 . D
O426 C445 1.283 . S
Be427 O429 1.635 . S
Be427 O435 1.620 . S
Be427 O441 1.578 . S
Be427 O442 1.577 . S
O428 C445 1.211 . D
O429 C449 1.282 . A
O430 C448 1.282 . A
O431 C446 1.283 . S
O432 C446 1.211 . D
H433 O440 0.930 . S
H434 O441 0.930 . S
O435 C447 1.283 . S
O436 C447 1.211 . D
H437 O442 0.930 . S
H438 O443 0.930 . S
O439 C449 1.282 . A
O450 C478 1.282 . A
O450 Be454 1.635 . S
Be451 O453 1.619 . S
Be451 O460 1.635 . S
Be451 O470 1.578 . S
Be451 O472 1.577 . S
Be452 O456 1.619 . S
Be452 O469 1.635 . S
Be452 O471 1.578 . S
Be452 O473 1.577 . S
O453 C474 1.283 . S
Be454 O461 1.619 . S
Be454 O470 1.578 . S
Be454 O473 1.577 . S
O455 C474 1.211 . D
O456 C475 1.283 . S
Be457 O459 1.635 . S
Be457 O465 1.620 . S
Be457 O471 1.578 . S
Be457 O472 1.577 . S
O458 C475 1.211 . D
O459 C479 1.282 . A
O460 C478 1.282 . A
O461 C476 1.283 . S
O462 C476 1.211 . D
H463 O470 0.930 . S
H464 O471 0.930 . S
O465 C477 1.283 . S
O466 C477 1.211 . D
H467 O472 0.930 . S
H468 O473 0.930 . S
O469 C479 1.282 . A
O480 C508 1.282 . A
O480 Be484 1.635 . S
Be481 O483 1.619 . S
Be481 O490 1.635 . S
Be481 O500 1.578 . S
Be481 O502 1.577 . S
Be482 O486 1.619 . S
Be482 O499 1.635 . S
Be482 O501 1.578 . S
Be482 O503 1.577 . S
O483 C504 1.283 . S
Be484 O491 1.619 . S
Be484 O500 1.578 . S
Be484 O503 1.577 . S
O485 C504 1.211 . D
O486 C505 1.283 . S
Be487 O489 1.635 . S
Be487 O495 1.620 . S
Be487 O501 1.578 . S
Be487 O502 1.577 . S
O488 C505 1.211 . D
O489 C509 1.282 . A
O490 C508 1.282 . A
O491 C506 1.283 . S
O492 C506 1.211 . D
H493 O500 0.930 . S
H494 O501 0.930 . S
O495 C507 1.283 . S
O496 C507 1.211 . D
H497 O502 0.930 . S
H498 O503 0.930 . S
O499 C509 1.282 . A
O510 C538 1.282 . A
O510 Be514 1.635 . S
Be511 O513 1.619 . S
Be511 O520 1.635 . S
Be511 O530 1.578 . S
Be511 O532 1.577 . S
Be512 O516 1.619 . S
Be512 O529 1.635 . S
Be512 O531 1.578 . S
Be512 O533 1.577 1_565 S
O513 C534 1.283 . S
Be514 O521 1.619 . S
Be514 O530 1.578 . S
Be514 O533 1.577 . S
O515 C534 1.211 . D
O516 C535 1.283 . S
Be517 O519 1.637 . S
Be517 O525 1.619 1_465 S
Be517 O531 1.579 . S
Be517 O532 1.574 1_565 S
O518 C535 1.211 . D
O519 C539 1.282 . A
O520 C538 1.282 . A
O521 C536 1.283 . S
O522 C536 1.211 . D
H523 O530 0.930 . S
H524 O531 0.926 1_545 S
O525 C537 1.283 1_545 S
O526 C537 1.211 . D
H527 O532 0.931 . S
H528 O533 0.930 . S
O529 C539 1.282 . A
O540 C568 1.282 . A
O540 Be544 1.635 . S
Be541 O543 1.619 . S
Be541 O550 1.635 . S
Be541 O560 1.578 . S
Be541 O562 1.577 1_565 S
Be542 O546 1.619 . S
Be542 O559 1.635 . S
Be542 O561 1.578 . S
Be542 O563 1.577 . S
O543 C564 1.283 . S
Be544 O551 1.619 . S
Be544 O560 1.578 . S
Be544 O563 1.577 1_565 S
O545 C564 1.211 . D
O546 C565 1.283 . S
Be547 O549 1.635 . S
Be547 O555 1.620 . S
Be547 O561 1.578 . S
Be547 O562 1.577 . S
O548 C565 1.211 . D
O549 C569 1.282 . A
O550 C568 1.282 . A
O551 C566 1.283 . S
O552 C566 1.211 . D
H553 O560 0.930 . S
H554 O561 0.930 . S
O555 C567 1.283 . S
O556 C567 1.211 . D
H557 O562 0.930 . S
H558 O563 0.930 . S
O559 C569 1.282 . A
O570 C598 1.282 . A
O570 Be574 1.635 . S
Be571 O573 1.619 . S
Be571 O580 1.635 . S
Be571 O590 1.578 . S
Be571 O592 1.577 . S
Be572 O576 1.619 . S
Be572 O589 1.635 . S
Be572 O591 1.578 . S
Be572 O593 1.577 . S
O573 C594 1.283 . S
Be574 O581 1.619 . S
Be574 O590 1.578 . S
Be574 O593 1.577 1_556 S
O575 C594 1.211 . D
O576 C595 1.283 . S
Be577 O579 1.635 . S
Be577 O585 1.620 . S
Be577 O591 1.578 . S
Be577 O592 1.577 1_554 S
O578 C595 1.211 . D
O579 C599 1.282 . A
O580 C598 1.282 . A
O581 C596 1.283 . S
O582 C596 1.211 . D
H583 O590 0.930 . S
H584 O591 0.930 . S
O585 C597 1.283 . S
O586 C597 1.211 . D
H587 O592 0.930 . S
H588 O593 0.930 . S
O589 C599 1.282 . A
O600 C628 1.282 . A
O600 Be604 1.635 . S
Be601 O603 1.619 . S
Be601 O610 1.635 . S
Be601 O620 1.578 . S
Be601 O622 1.577 . S
Be602 O606 1.619 . S
Be602 O619 1.635 . S
Be602 O621 1.578 . S
Be602 O623 1.577 . S
O603 C624 1.283 . S
Be604 O611 1.619 . S
Be604 O620 1.578 . S
Be604 O623 1.577 . S
O605 C624 1.211 . D
O606 C625 1.283 . S
Be607 O609 1.635 . S
Be607 O615 1.620 . S
Be607 O621 1.578 . S
Be607 O622 1.577 . S
O608 C625 1.211 . D
O609 C629 1.282 . A
O610 C628 1.282 . A
O611 C626 1.283 . S
O612 C626 1.211 . D
H613 O620 0.930 . S
H614 O621 0.930 . S
O615 C627 1.283 . S
O616 C627 1.211 . D
H617 O622 0.930 . S
H618 O623 0.930 . S
O619 C629 1.282 . A
O630 C658 1.282 . A
O630 Be634 1.635 . S
Be631 O633 1.619 . S
Be631 O640 1.635 1_655 S
Be631 O650 1.578 . S
Be631 O652 1.577 . S
Be632 O636 1.619 1_554 S
Be632 O649 1.635 . S
Be632 O651 1.578 1_455 S
Be632 O653 1.577 . S
O633 C654 1.283 . S
Be634 O641 1.619 . S
Be634 O650 1.578 1_455 S
Be634 O653 1.577 . S
O635 C654 1.211 . D
O636 C655 1.283 . S
Be637 O639 1.635 1_655 S
Be637 O645 1.620 . S
Be637 O651 1.578 . S
Be637 O652 1.577 . S
O638 C655 1.211 1_655 D
O639 C659 1.282 . A
O640 C658 1.282 . A
O641 C656 1.283 . S
O642 C656 1.211 . D
H643 O650 0.930 . S
H644 O651 0.930 1_556 S
O645 C657 1.283 1_554 S
O646 C657 1.211 . D
H647 O652 0.930 . S
H648 O653 0.930 . S
O649 C659 1.282 . A
O660 C688 1.282 . A
O660 Be664 1.635 . S
Be661 O663 1.619 . S
Be661 O670 1.635 . S
Be661 O680 1.578 . S
Be661 O682 1.577 . S
Be662 O666 1.619 . S
Be662 O679 1.635 . S
Be662 O681 1.578 . S
Be662 O683 1.577 . S
O663 C684 1.283 . S
Be664 O671 1.619 . S
Be664 O680 1.578 . S
Be664 O683 1.577 . S
O665 C684 1.211 . D
O666 C685 1.283 . S
Be667 O669 1.635 . S
Be667 O675 1.620 . S
Be667 O681 1.578 . S
Be667 O682 1.577 . S
O668 C685 1.211 . D
O669 C689 1.282 . A
O670 C688 1.282 . A
O671 C686 1.283 . S
O672 C686 1.211 . D
H673 O680 0.930 . S
H674 O681 0.930 . S
O675 C687 1.283 . S
O676 C687 1.211 . D
H677 O682 0.930 . S
H678 O683 0.930 . S
O679 C689 1.282 . A
O690 C718 1.282 . A
O690 Be694 1.635 1_655 S
Be691 O693 1.619 . S
Be691 O700 1.635 . S
Be691 O710 1.578 . S
Be691 O712 1.577 . S
Be692 O696 1.619 . S
Be692 O709 1.635 . S
Be692 O711 1.578 . S
Be692 O713 1.577 1_655 S
O693 C714 1.283 . S
Be694 O701 1.619 . S
Be694 O710 1.578 . S
Be694 O713 1.577 . S
O695 C714 1.211 . D
O696 C715 1.283 . S
Be697 O699 1.635 . S
Be697 O705 1.620 . S
Be697 O711 1.578 . S
Be697 O712 1.577 1_655 S
O698 C715 1.211 . D
O699 C719 1.282 . A
O700 C718 1.282 1_455 A
O701 C716 1.283 . S
O702 C716 1.211 . D
H703 O710 0.930 . S
H704 O711 0.930 1_455 S
O705 C717 1.283 . S
O706 C717 1.211 . D
H707 O712 0.930 . S
H708 O713 0.930 . S
O709 C719 1.282 . A
C149 C28 1.719 . S
C509 C59 1.603 . S
C88 C629 1.580 . S
C119 C719 1.136 . S
C178 C689 1.385 . S
C209 C569 1.760 . S
C599 C238 1.831 1_554 S
C539 C269 1.527 . S
C479 C298 1.974 . S
C359 C328 1.766 . S
C389 C449 1.739 . S
C419 C659 1.745 . S
C357 C26 1.954 . S
C54 C476 2.212 . S
C86 C657 2.325 1_554 S
C324 C117 2.600 . S
C147 C447 3.353 . S
C27 C55 1.924 . S
C535 C177 2.776 . S
C446 C206 2.078 . S
C236 C477 1.822 . S
C356 C264 1.926 . S
C567 C294 3.192 . S
C686 C325 1.723 . S
C387 C176 2.087 . S
C597 C417 3.454 1_554 S
C386 C504 2.503 . S
C687 C566 2.166 . S
C596 C207 1.695 . S
C116 C627 2.029 . S
C656 C534 2.369 . S
C237 C265 1.830 1_545 S
C87 C505 2.603 . S
C717 C146 1.772 . S
C295 C626 1.735 . S
C416 C716 1.841 . S
