# Generated by pormake.
# Topology sit, (3,6)-cn, num edge types: 1
# Building blocks:
#     Node 0, Type 0, BuildingBlock: N651, # of connection points: 5
#     Node 1, Type 0, BuildingBlock: N651, # of connection points: 5
#     Node 2, Type 0, BuildingBlock: N651, # of connection points: 5
#     Node 3, Type 0, BuildingBlock: N651, # of connection points: 5
#     Node 4, Type 1, BuildingBlock: N439, # of connection points: 12
#     Node 5, Type 1, BuildingBlock: N439, # of connection points: 12
#     Edge 6, Type (0, 1), BuildingBlock: E52, # of connection points: 2
#     Edge 7, Type (0, 1), BuildingBlock: E52, # of connection points: 2
#     Edge 8, Type (0, 1), BuildingBlock: E52, # of connection points: 2
#     Edge 9, Type (0, 1), BuildingBlock: E52, # of connection points: 2
#     Edge 10, Type (0, 1), BuildingBlock: E52, # of connection points: 2
#     Edge 11, Type (0, 1), BuildingBlock: E52, # of connection points: 2
#     Edge 12, Type (0, 1), BuildingBlock: E52, # of connection points: 2
#     Edge 13, Type (0, 1), BuildingBlock: E52, # of connection points: 2
#     Edge 14, Type (0, 1), BuildingBlock: E52, # of connection points: 2
#     Edge 15, Type (0, 1), BuildingBlock: E52, # of connection points: 2
#     Edge 16, Type (0, 1), BuildingBlock: E52, # of connection points: 2
#     Edge 17, Type (0, 1), BuildingBlock: E52, # of connection points: 2
# Relax obj value: 0.075
# Max RMSD: 0.224
# Mean RMSD: 0.216
data_sit+N651+N439+E52
_symmetry_space_group_name_H-M    P1
_symmetry_Int_Tables_number       1
_symmetry_cell_setting            triclinic
loop_
_symmetry_equiv_pos_as_xyz
'x, y, z'
_cell_length_a     21.956
_cell_length_b     38.590
_cell_length_c     23.426
_cell_angle_alpha  90.485
_cell_angle_beta   96.936
_cell_angle_gamma  94.934
loop_
_atom_site_label
_atom_site_type_symbol
_atom_site_fract_x
_atom_site_fract_y
_atom_site_fract_z
_atom_type_partial_charge
Zn0 Zn 0.99658 0.68890 0.08767 0.00000
Zn1 Zn 0.05564 0.68459 0.96988 0.00000
C2 C 0.93236 0.65381 0.98394 0.00000
Zn3 Zn 0.13927 0.72866 0.08257 0.00000
O4 O 0.05347 0.73198 0.94439 0.00000
O5 O 0.12964 0.75516 0.00583 0.00000
O6 O 0.98500 0.67329 0.16530 0.00000
O7 O 0.03789 0.63375 0.13616 0.00000
O8 O 0.93067 0.66445 0.03300 0.00000
O9 O 0.10841 0.66427 0.91918 0.00000
O10 O 0.11173 0.62836 0.98890 0.00000
O11 O 0.97131 0.66148 0.95195 0.00000
C12 C 0.09305 0.75626 0.96220 0.00000
O13 O 0.07609 0.75906 0.11263 0.00000
O14 O 0.98058 0.73730 0.08976 0.00000
O15 O 0.07504 0.68819 0.05444 0.00000
C16 C 0.01313 0.64642 0.17236 0.00000
C17 C 0.12732 0.63809 0.94464 0.00000
C18 C 0.02046 0.76156 0.10698 0.00000
Zn19 Zn 0.47778 0.82601 0.58815 0.00000
Zn20 Zn 0.53302 0.83130 0.46807 0.00000
C21 C 0.41583 0.85724 0.48657 0.00000
Zn22 Zn 0.61311 0.79197 0.57791 0.00000
O23 O 0.52153 0.78332 0.44194 0.00000
O24 O 0.59589 0.76401 0.50085 0.00000
O25 O 0.47193 0.84218 0.66666 0.00000
O26 O 0.53059 0.88369 0.63621 0.00000
O27 O 0.41415 0.84712 0.53573 0.00000
O28 O 0.58735 0.85325 0.41575 0.00000
O29 O 0.59965 0.89032 0.48608 0.00000
O30 O 0.45216 0.85076 0.45310 0.00000
C31 C 0.55748 0.76082 0.45823 0.00000
O32 O 0.54581 0.75921 0.60973 0.00000
O33 O 0.45336 0.77678 0.59014 0.00000
O34 O 0.55500 0.82956 0.55227 0.00000
C35 C 0.50503 0.87040 0.67318 0.00000
C36 C 0.61182 0.88064 0.44103 0.00000
C37 C 0.48959 0.75431 0.60582 0.00000
Zn38 Zn 0.97775 0.32598 0.08808 0.00000
Zn39 Zn 0.03299 0.33127 0.96800 0.00000
C40 C 0.91581 0.35721 0.98649 0.00000
Zn41 Zn 0.11309 0.29194 0.07784 0.00000
O42 O 0.02151 0.28329 0.94186 0.00000
O43 O 0.09587 0.26398 0.00010 0.00000
O44 O 0.97191 0.34215 0.16658 0.00000
O45 O 0.03057 0.38366 0.13614 0.00000
O46 O 0.91413 0.34709 0.03565 0.00000
O47 O 0.08733 0.35322 0.91567 0.00000
O48 O 0.09963 0.39029 0.98601 0.00000
O49 O 0.95214 0.35073 0.95303 0.00000
C50 C 0.05746 0.26079 0.95815 0.00000
O51 O 0.04578 0.25917 0.10965 0.00000
O52 O 0.95334 0.27675 0.09006 0.00000
O53 O 0.05497 0.32953 0.05220 0.00000
C54 C 0.00500 0.37037 0.17311 0.00000
C55 C 0.11180 0.38062 0.94095 0.00000
C56 C 0.98957 0.25428 0.10574 0.00000
Zn57 Zn 0.49656 0.18893 0.58754 0.00000
Zn58 Zn 0.55562 0.18462 0.46975 0.00000
C59 C 0.43235 0.15385 0.48381 0.00000
Zn60 Zn 0.63925 0.22869 0.58245 0.00000
O61 O 0.55345 0.23202 0.44426 0.00000
O62 O 0.62962 0.25519 0.50570 0.00000
O63 O 0.48498 0.17332 0.66518 0.00000
O64 O 0.53787 0.13379 0.63603 0.00000
O65 O 0.43066 0.16448 0.53287 0.00000
O66 O 0.60839 0.16431 0.41905 0.00000
O67 O 0.61171 0.12840 0.48877 0.00000
O68 O 0.47129 0.16152 0.45182 0.00000
C69 C 0.59303 0.25630 0.46208 0.00000
O70 O 0.57607 0.25910 0.61251 0.00000
O71 O 0.48056 0.23734 0.58964 0.00000
O72 O 0.57502 0.18823 0.55431 0.00000
C73 C 0.51312 0.14646 0.67223 0.00000
C74 C 0.62730 0.13812 0.44451 0.00000
C75 C 0.52044 0.26160 0.60686 0.00000
Ni76 Ni 0.97190 0.06044 0.32822 0.00000
Ni77 Ni 0.96765 0.97627 0.23454 0.00000
Ni78 Ni 0.12299 0.01644 0.31615 0.00000
Ni79 Ni 0.99726 0.97178 0.40143 0.00000
Ni80 Ni 0.06225 0.03620 0.40563 0.00000
Ni81 Ni 0.05800 0.95202 0.31195 0.00000
Ni82 Ni 0.90691 0.99602 0.32403 0.00000
Ni83 Ni 0.03264 0.04069 0.23874 0.00000
H84 H 0.94804 0.02800 0.41867 0.00000
H85 H 0.08186 0.98447 0.22150 0.00000
H86 H 0.08654 0.07720 0.32471 0.00000
H87 H 0.94336 0.93527 0.31546 0.00000
H88 H 0.91542 0.03294 0.23481 0.00000
H89 H 0.11448 0.97952 0.40536 0.00000
H90 H 0.07489 0.87310 0.24791 0.00000
H91 H 0.08654 0.10407 0.50496 0.00000
H92 H 0.77670 0.96261 0.38075 0.00000
H93 H 0.12167 0.08516 0.14673 0.00000
H94 H 0.09396 0.87021 0.35538 0.00000
H95 H 0.02438 0.11349 0.15450 0.00000
H96 H 0.18384 0.07573 0.49718 0.00000
H97 H 0.75763 0.96550 0.27328 0.00000
H98 H 0.17492 0.89897 0.30046 0.00000
H99 H 0.76037 0.01971 0.33360 0.00000
H100 H 0.02164 0.05928 0.09418 0.00000
H101 H 0.10287 0.04697 0.55210 0.00000
H102 H 0.94336 0.90840 0.13521 0.00000
H103 H 0.95501 0.13937 0.39226 0.00000
H104 H 0.25321 0.04986 0.25942 0.00000
H105 H 0.90823 0.92731 0.49345 0.00000
H106 H 0.92703 0.96549 0.08807 0.00000
H107 H 0.00826 0.95318 0.54600 0.00000
H108 H 0.85498 0.11350 0.33971 0.00000
H109 H 0.26954 0.99276 0.30657 0.00000
H110 H 0.84606 0.93673 0.14299 0.00000
H111 H 0.27227 0.04697 0.36690 0.00000
H112 H 0.00552 0.89897 0.48567 0.00000
H113 H 0.93594 0.14226 0.28479 0.00000
C114 C 0.00857 0.87981 0.17939 0.00000
C115 C 0.02133 0.13266 0.46079 0.00000
C116 C 0.82612 0.93915 0.44818 0.00000
C117 C 0.20378 0.07331 0.19199 0.00000
C118 C 0.05304 0.87307 0.43004 0.00000
C119 C 0.97687 0.13940 0.21013 0.00000
C120 C 0.24824 0.06657 0.44265 0.00000
C121 C 0.78166 0.94589 0.19753 0.00000
C122 C 0.24187 0.94015 0.30195 0.00000
C123 C 0.78804 0.07232 0.33823 0.00000
C124 C 0.97049 0.01297 0.06943 0.00000
C125 C 0.05942 0.99990 0.57074 0.00000
C126 C 0.04555 0.88740 0.22956 0.00000
C127 C 0.05656 0.10569 0.47249 0.00000
C128 C 0.81583 0.95801 0.39974 0.00000
C129 C 0.14186 0.07383 0.17857 0.00000
C130 C 0.07210 0.88337 0.37925 0.00000
C131 C 0.00635 0.11330 0.18940 0.00000
C132 C 0.19208 0.06622 0.46166 0.00000
C133 C 0.78928 0.96204 0.25004 0.00000
C134 C 0.18487 0.92343 0.30275 0.00000
C135 C 0.79309 0.03754 0.33407 0.00000
C136 C 0.00254 0.03780 0.10537 0.00000
C137 C 0.07931 0.02616 0.53815 0.00000
C138 C 0.97334 0.90678 0.16769 0.00000
C139 C 0.98435 0.12507 0.41062 0.00000
C140 C 0.21407 0.05445 0.24044 0.00000
C141 C 0.88804 0.93863 0.46161 0.00000
C142 C 0.95059 0.98631 0.10202 0.00000
C143 C 0.02736 0.97467 0.53480 0.00000
C144 C 0.84503 0.08903 0.33742 0.00000
C145 C 0.23681 0.97492 0.30610 0.00000
C146 C 0.83783 0.94625 0.17852 0.00000
C147 C 0.24062 0.05043 0.39013 0.00000
C148 C 0.02356 0.89917 0.45077 0.00000
C149 C 0.95780 0.12909 0.26092 0.00000
N150 N 0.03318 0.91906 0.24886 0.00000
N151 N 0.04137 0.08142 0.42956 0.00000
N152 N 0.87138 0.96915 0.38321 0.00000
N153 N 0.11388 0.05530 0.21871 0.00000
N154 N 0.05441 0.91584 0.36858 0.00000
N155 N 0.00550 0.08686 0.22738 0.00000
N156 N 0.14974 0.04986 0.42089 0.00000
N157 N 0.85014 0.97237 0.26350 0.00000
N158 N 0.14460 0.94788 0.30740 0.00000
N159 N 0.85319 0.03275 0.33070 0.00000
N160 N 0.00246 0.02648 0.16017 0.00000
N161 N 0.05956 0.01782 0.48207 0.00000
N162 N 0.98853 0.93104 0.21062 0.00000
N163 N 0.99673 0.09340 0.39131 0.00000
N164 N 0.15852 0.04332 0.25696 0.00000
N165 N 0.91602 0.95717 0.42146 0.00000
N166 N 0.97034 0.99465 0.15810 0.00000
N167 N 0.02745 0.98599 0.48000 0.00000
N168 N 0.88530 0.06458 0.33277 0.00000
N169 N 0.17671 0.97971 0.30947 0.00000
N170 N 0.88016 0.96261 0.21928 0.00000
N171 N 0.17976 0.04010 0.37668 0.00000
N172 N 0.02440 0.92561 0.41280 0.00000
N173 N 0.97549 0.09662 0.27159 0.00000
O174 O 0.96900 0.02118 0.38779 0.00000
O175 O 0.06091 0.99128 0.25238 0.00000
O176 O 0.06412 0.05497 0.32326 0.00000
O177 O 0.96578 0.95749 0.31691 0.00000
O178 O 0.94660 0.02458 0.26152 0.00000
O179 O 0.08330 0.98789 0.37865 0.00000
Ni180 Ni 0.47191 0.56044 0.82826 0.00000
Ni181 Ni 0.46766 0.47628 0.73454 0.00000
Ni182 Ni 0.62299 0.51644 0.81616 0.00000
Ni183 Ni 0.49726 0.47177 0.90143 0.00000
Ni184 Ni 0.56225 0.53619 0.90566 0.00000
Ni185 Ni 0.55800 0.45202 0.81194 0.00000
Ni186 Ni 0.40692 0.49602 0.82404 0.00000
Ni187 Ni 0.53265 0.54070 0.73877 0.00000
H188 H 0.44804 0.52799 0.91869 0.00000
H189 H 0.58187 0.48448 0.72151 0.00000
H190 H 0.58655 0.57720 0.82475 0.00000
H191 H 0.44335 0.43527 0.81545 0.00000
H192 H 0.41543 0.53296 0.73484 0.00000
H193 H 0.61448 0.47951 0.90536 0.00000
H194 H 0.57489 0.37311 0.74787 0.00000
H195 H 0.58655 0.60404 0.00501 0.00000
H196 H 0.27669 0.46260 0.88074 0.00000
H197 H 0.62169 0.58518 0.64677 0.00000
H198 H 0.59395 0.37020 0.85534 0.00000
H199 H 0.52439 0.61352 0.65456 0.00000
H200 H 0.68384 0.57571 0.99722 0.00000
H201 H 0.25763 0.46551 0.77327 0.00000
H202 H 0.67492 0.39897 0.80043 0.00000
H203 H 0.26037 0.51971 0.83362 0.00000
H204 H 0.52165 0.55932 0.59421 0.00000
H205 H 0.60287 0.54694 0.05213 0.00000
H206 H 0.44336 0.40842 0.63519 0.00000
H207 H 0.45502 0.63936 0.89233 0.00000
H208 H 0.75321 0.54987 0.75946 0.00000
H209 H 0.40822 0.42729 0.99343 0.00000
H210 H 0.42703 0.46553 0.58807 0.00000
H211 H 0.50825 0.45315 0.04599 0.00000
H212 H 0.35499 0.61350 0.83977 0.00000
H213 H 0.76954 0.49276 0.80658 0.00000
H214 H 0.34606 0.43676 0.64298 0.00000
H215 H 0.77227 0.54696 0.86693 0.00000
H216 H 0.50551 0.39895 0.98564 0.00000
H217 H 0.43596 0.64227 0.78485 0.00000
C218 C 0.50857 0.37983 0.67935 0.00000
C219 C 0.52134 0.63264 0.96085 0.00000
C220 C 0.32611 0.43914 0.94817 0.00000
C221 C 0.70379 0.57333 0.69203 0.00000
C222 C 0.55303 0.37305 0.93000 0.00000
C223 C 0.47688 0.63942 0.71020 0.00000
C224 C 0.74825 0.56656 0.94268 0.00000
C225 C 0.28166 0.44591 0.69752 0.00000
C226 C 0.74186 0.44015 0.80193 0.00000
C227 C 0.28804 0.57232 0.83827 0.00000
C228 C 0.47050 0.51301 0.56945 0.00000
C229 C 0.55941 0.49946 0.07075 0.00000
C230 C 0.54555 0.38741 0.72952 0.00000
C231 C 0.55657 0.60567 0.97254 0.00000
C232 C 0.31583 0.45800 0.89973 0.00000
C233 C 0.64187 0.57385 0.67861 0.00000
C234 C 0.57210 0.38336 0.87921 0.00000
C235 C 0.50636 0.61332 0.68945 0.00000
C236 C 0.69208 0.56620 0.96169 0.00000
C237 C 0.28928 0.46205 0.75004 0.00000
C238 C 0.68487 0.42344 0.80273 0.00000
C239 C 0.29309 0.53754 0.83410 0.00000
C240 C 0.50255 0.53783 0.60540 0.00000
C241 C 0.57930 0.52613 0.03817 0.00000
C242 C 0.47334 0.40680 0.66766 0.00000
C243 C 0.48436 0.62506 0.91068 0.00000
C244 C 0.71408 0.55446 0.74047 0.00000
C245 C 0.38803 0.43861 0.96159 0.00000
C246 C 0.45060 0.48634 0.60203 0.00000
C247 C 0.52736 0.47464 0.03480 0.00000
C248 C 0.34504 0.58903 0.83747 0.00000
C249 C 0.73681 0.47493 0.80610 0.00000
C250 C 0.33783 0.44627 0.67851 0.00000
C251 C 0.74063 0.55042 0.89016 0.00000
C252 C 0.52355 0.39915 0.95074 0.00000
C253 C 0.45781 0.62910 0.76099 0.00000
N254 N 0.53317 0.41907 0.74884 0.00000
N255 N 0.54137 0.58141 0.92960 0.00000
N256 N 0.37138 0.46914 0.88321 0.00000
N257 N 0.61389 0.55531 0.71874 0.00000
N258 N 0.55441 0.41584 0.86856 0.00000
N259 N 0.50551 0.58687 0.72742 0.00000
N260 N 0.64975 0.54984 0.92092 0.00000
N261 N 0.35015 0.47238 0.76350 0.00000
N262 N 0.64460 0.44788 0.80739 0.00000
N263 N 0.35319 0.53275 0.83072 0.00000
N264 N 0.50246 0.52650 0.66020 0.00000
N265 N 0.55955 0.51780 0.98209 0.00000
N266 N 0.48853 0.43106 0.71060 0.00000
N267 N 0.49673 0.59340 0.89135 0.00000
N268 N 0.65853 0.54332 0.75698 0.00000
N269 N 0.41602 0.45716 0.92145 0.00000
N270 N 0.47035 0.49467 0.65811 0.00000
N271 N 0.52744 0.48597 0.98000 0.00000
N272 N 0.38531 0.56458 0.83281 0.00000
N273 N 0.67671 0.47971 0.80948 0.00000
N274 N 0.38016 0.46262 0.71928 0.00000
N275 N 0.67976 0.54009 0.87670 0.00000
N276 N 0.52439 0.42559 0.91278 0.00000
N277 N 0.47550 0.59663 0.77164 0.00000
O278 O 0.46900 0.52117 0.88781 0.00000
O279 O 0.56091 0.49129 0.75239 0.00000
O280 O 0.56412 0.55497 0.82330 0.00000
O281 O 0.46578 0.45749 0.81690 0.00000
O282 O 0.44660 0.52459 0.76154 0.00000
O283 O 0.58330 0.48788 0.87866 0.00000
H284 H 0.22394 0.83708 0.28085 0.00000
C285 C 0.03160 0.78978 0.12341 0.00000
C286 C 0.99620 0.81746 0.13226 0.00000
C287 C 0.01939 0.84480 0.16981 0.00000
C288 C 0.07824 0.84528 0.19915 0.00000
C289 C 0.11333 0.81783 0.19031 0.00000
C290 C 0.09008 0.79030 0.15302 0.00000
O291 O 0.19567 0.84338 0.25545 0.00000
C292 C 0.17763 0.81784 0.21937 0.00000
O293 O 0.21186 0.79664 0.20563 0.00000
H294 H 0.95585 0.81749 0.11235 0.00000
H295 H 0.09423 0.86402 0.22472 0.00000
H296 H 0.11459 0.77169 0.14782 0.00000
H297 H 0.71624 0.69852 0.74467 0.00000
C298 C 0.50211 0.72575 0.61782 0.00000
C299 C 0.46884 0.69532 0.63322 0.00000
C300 C 0.49581 0.67265 0.67241 0.00000
C301 C 0.55626 0.67979 0.69724 0.00000
C302 C 0.58920 0.70999 0.68196 0.00000
C303 C 0.56244 0.73263 0.64245 0.00000
O304 O 0.67686 0.69651 0.74357 0.00000
C305 C 0.65360 0.71935 0.70906 0.00000
O306 O 0.67978 0.74807 0.70244 0.00000
H307 H 0.42734 0.69015 0.61662 0.00000
H308 H 0.57472 0.66436 0.72417 0.00000
H309 H 0.58580 0.75300 0.63231 0.00000
H310 H 0.84021 0.09931 0.00550 0.00000
C311 C 0.96773 0.21757 0.09841 0.00000
C312 C 0.99323 0.20152 0.14810 0.00000
C313 C 0.98250 0.16588 0.15497 0.00000
C314 C 0.94645 0.14544 0.11259 0.00000
C315 C 0.92122 0.16138 0.06332 0.00000
C316 C 0.93155 0.19710 0.05647 0.00000
O317 O 0.87371 0.10744 0.02571 0.00000
C318 C 0.88395 0.14029 0.01574 0.00000
O319 O 0.86919 0.15312 0.96905 0.00000
H320 H 0.01812 0.21521 0.17741 0.00000
H321 H 0.93922 0.12105 0.11716 0.00000
H322 H 0.91362 0.20754 0.02268 0.00000
H323 H 0.39815 0.27745 0.82467 0.00000
C324 C 0.50242 0.28510 0.62558 0.00000
C325 C 0.51720 0.32119 0.62972 0.00000
C326 C 0.50573 0.34009 0.67743 0.00000
C327 C 0.47958 0.32354 0.72206 0.00000
C328 C 0.46498 0.28775 0.71792 0.00000
C329 C 0.47604 0.26878 0.67003 0.00000
O330 O 0.42705 0.28794 0.80800 0.00000
C331 C 0.43879 0.26867 0.76575 0.00000
O332 O 0.43420 0.23686 0.76642 0.00000
H333 H 0.53526 0.33284 0.59951 0.00000
H334 H 0.47187 0.33642 0.75479 0.00000
H335 H 0.46540 0.24440 0.66783 0.00000
H336 H 0.18276 0.69111 0.69893 0.00000
C337 C 0.17173 0.62526 0.90219 0.00000
C338 C 0.21186 0.60042 0.89068 0.00000
C339 C 0.24002 0.60166 0.84063 0.00000
C340 C 0.22910 0.62765 0.80112 0.00000
C341 C 0.18933 0.65229 0.81260 0.00000
C342 C 0.16074 0.65098 0.86251 0.00000
O343 O 0.20365 0.68035 0.72547 0.00000
C344 C 0.17788 0.68141 0.77235 0.00000
O345 O 0.15042 0.70591 0.78590 0.00000
H346 H 0.21985 0.58251 0.91745 0.00000
H347 H 0.24846 0.62860 0.76695 0.00000
H348 H 0.13345 0.66791 0.86941 0.00000
H349 H 0.72198 0.02606 0.58642 0.00000
C350 C 0.65830 0.90853 0.45554 0.00000
C351 C 0.71671 0.90707 0.43761 0.00000
C352 C 0.76534 0.93104 0.45843 0.00000
C353 C 0.75704 0.95684 0.49762 0.00000
C354 C 0.69910 0.95824 0.51541 0.00000
C355 C 0.65021 0.93442 0.49434 0.00000
O356 O 0.73508 0.00715 0.57507 0.00000
C357 C 0.68855 0.98477 0.55899 0.00000
O358 O 0.64070 0.98312 0.58112 0.00000
H359 H 0.72307 0.88948 0.41087 0.00000
H360 H 0.79029 0.97319 0.51203 0.00000
H361 H 0.61091 0.93593 0.50673 0.00000
H362 H 0.90500 0.51731 0.13053 0.00000
C363 C 0.89553 0.62386 0.98021 0.00000
C364 C 0.83448 0.61451 0.95664 0.00000
C365 C 0.80023 0.58674 0.97818 0.00000
C366 C 0.82580 0.56780 0.02365 0.00000
C367 C 0.88633 0.57712 0.04701 0.00000
C368 C 0.92088 0.60477 0.02530 0.00000
O369 O 0.88151 0.53184 0.11387 0.00000
C370 C 0.91504 0.55827 0.09723 0.00000
O371 O 0.96465 0.56933 0.12333 0.00000
H372 H 0.81636 0.62731 0.92556 0.00000
H373 H 0.80238 0.54886 0.03853 0.00000
H374 H 0.96225 0.61060 0.04159 0.00000
H375 H 0.59917 0.33507 0.90617 0.00000
C376 C 0.84440 0.37565 0.93951 0.00000
C377 C 0.84078 0.40278 0.90014 0.00000
C378 C 0.78429 0.41070 0.87229 0.00000
C379 C 0.73027 0.39194 0.88313 0.00000
C380 C 0.73390 0.36506 0.92222 0.00000
C381 C 0.79044 0.35692 0.94989 0.00000
O382 O 0.62592 0.35275 0.90773 0.00000
C383 C 0.67687 0.34498 0.93673 0.00000
O384 O 0.67870 0.32487 0.97689 0.00000
H385 H 0.87742 0.41589 0.89240 0.00000
H386 H 0.69158 0.39739 0.86424 0.00000
H387 H 0.79201 0.33834 0.97617 0.00000
H388 H 0.32888 0.33987 0.80090 0.00000
C389 C 0.16848 0.39133 0.93247 0.00000
C390 C 0.20966 0.41917 0.95540 0.00000
C391 C 0.26763 0.42500 0.93740 0.00000
C392 C 0.28579 0.40341 0.89616 0.00000
C393 C 0.24490 0.37582 0.87343 0.00000
C394 C 0.18696 0.36977 0.89163 0.00000
O395 O 0.31710 0.35865 0.81423 0.00000
C396 C 0.26159 0.35265 0.82755 0.00000
O397 O 0.22305 0.33163 0.80140 0.00000
H398 H 0.19775 0.43421 0.98359 0.00000
H399 H 0.32535 0.40742 0.88370 0.00000
H400 H 0.15983 0.35067 0.87586 0.00000
H401 H 0.39498 0.02633 0.64652 0.00000
C402 C 0.39471 0.12464 0.48161 0.00000
C403 C 0.33510 0.11397 0.45550 0.00000
C404 C 0.29948 0.08735 0.47851 0.00000
C405 C 0.32222 0.07089 0.52799 0.00000
C406 C 0.38132 0.08151 0.55387 0.00000
C407 C 0.41726 0.10800 0.53072 0.00000
O408 O 0.37233 0.03986 0.62627 0.00000
C409 C 0.40688 0.06540 0.60823 0.00000
O410 O 0.45477 0.07786 0.63579 0.00000
H411 H 0.31891 0.12508 0.42165 0.00000
H412 H 0.29785 0.05275 0.54387 0.00000
H413 H 0.45764 0.11475 0.54880 0.00000
H414 H 0.41416 0.88074 0.19837 0.00000
C415 C 0.37258 0.88083 0.42253 0.00000
C416 C 0.32048 0.89961 0.41323 0.00000
C417 C 0.29761 0.90886 0.35809 0.00000
C418 C 0.32584 0.89954 0.31106 0.00000
C419 C 0.37748 0.88089 0.32033 0.00000
C420 C 0.40074 0.87179 0.37554 0.00000
O421 O 0.38595 0.87983 0.22085 0.00000
C422 C 0.40806 0.86926 0.27089 0.00000
O423 O 0.44760 0.84867 0.27758 0.00000
H424 H 0.30062 0.90609 0.44506 0.00000
H425 H 0.31015 0.90576 0.27331 0.00000
H426 H 0.43626 0.85924 0.38102 0.00000
H427 H 0.91510 0.06819 0.50366 0.00000
C428 C 0.69375 0.11571 0.42917 0.00000
C429 C 0.69658 0.10804 0.37098 0.00000
C430 C 0.74540 0.09147 0.35407 0.00000
C431 C 0.79223 0.08208 0.39457 0.00000
C432 C 0.78935 0.08967 0.45227 0.00000
C433 C 0.74074 0.10646 0.46931 0.00000
O434 O 0.88298 0.06483 0.47879 0.00000
C435 C 0.83754 0.07898 0.49750 0.00000
O436 O 0.83089 0.08090 0.54852 0.00000
H437 H 0.66473 0.11426 0.34280 0.00000
H438 H 0.82556 0.07066 0.38309 0.00000
H439 H 0.73978 0.11161 0.50886 0.00000
loop_
_geom_bond_atom_site_label_1
_geom_bond_atom_site_label_2
_geom_bond_distance
_geom_bond_site_symmetry_2
_ccdc_geom_bond_type
Zn0 O6 1.959 . S
Zn0 O8 1.980 . S
Zn0 O14 1.931 . S
Zn0 O15 1.976 1_655 S
Zn1 O4 1.931 . S
Zn1 O9 1.960 . S
Zn1 O11 1.980 1_455 S
Zn1 O15 1.976 1_556 S
C2 O8 1.223 1_556 A
C2 O11 1.223 . A
Zn3 O5 2.073 . S
Zn3 O13 2.073 . S
Zn3 O15 2.059 . S
O4 C12 1.254 . A
O5 C12 1.225 1_554 A
O6 C16 1.254 1_655 S
O7 C16 1.185 . D
O9 C17 1.254 . S
O10 C17 1.185 . D
O13 C18 1.225 . A
O14 C18 1.254 1_655 A
Zn19 O25 1.959 . S
Zn19 O27 1.980 . S
Zn19 O33 1.931 . S
Zn19 O34 1.976 . S
Zn20 O23 1.931 . S
Zn20 O28 1.960 . S
Zn20 O30 1.980 . S
Zn20 O34 1.976 . S
C21 O27 1.223 . A
C21 O30 1.223 . A
Zn22 O24 2.073 . S
Zn22 O32 2.073 . S
Zn22 O34 2.059 . S
O23 C31 1.254 . A
O24 C31 1.225 . A
O25 C35 1.254 . S
O26 C35 1.185 . D
O28 C36 1.254 . S
O29 C36 1.185 . D
O32 C37 1.225 . A
O33 C37 1.254 . A
Zn38 O44 1.959 . S
Zn38 O46 1.980 . S
Zn38 O52 1.931 . S
Zn38 O53 1.976 1_655 S
Zn39 O42 1.931 . S
Zn39 O47 1.960 . S
Zn39 O49 1.980 1_455 S
Zn39 O53 1.976 1_556 S
C40 O46 1.223 1_556 A
C40 O49 1.223 . A
Zn41 O43 2.087 . S
Zn41 O51 2.073 . S
Zn41 O53 2.059 . S
O42 C50 1.254 . A
O43 C50 1.213 1_554 A
O44 C54 1.254 1_655 S
O45 C54 1.185 . D
O47 C55 1.254 . S
O48 C55 1.185 . D
O51 C56 1.225 1_455 A
O52 C56 1.254 . A
Zn57 O63 1.959 . S
Zn57 O65 1.980 . S
Zn57 O71 1.931 . S
Zn57 O72 1.976 . S
Zn58 O61 1.931 . S
Zn58 O66 1.960 . S
Zn58 O68 1.980 . S
Zn58 O72 1.976 . S
C59 O65 1.223 . A
C59 O68 1.223 . A
Zn60 O62 2.073 . S
Zn60 O70 2.073 . S
Zn60 O72 2.059 . S
O61 C69 1.254 . A
O62 C69 1.225 . A
O63 C73 1.254 . S
O64 C73 1.185 . D
O66 C74 1.254 . S
O67 C74 1.185 . D
O70 C75 1.225 . A
O71 C75 1.254 . A
Ni76 N163 1.937 . S
Ni76 N168 1.937 . S
Ni76 N173 1.937 . S
Ni76 O174 2.071 . S
Ni76 O176 2.071 1_655 S
Ni76 O178 2.071 . S
Ni77 N162 1.937 . S
Ni77 N166 1.937 . S
Ni77 N170 1.937 . S
Ni77 O175 2.071 1_655 S
Ni77 O177 2.071 . S
Ni77 O178 2.071 1_565 S
Ni78 N164 1.937 . S
Ni78 N169 1.937 1_545 S
Ni78 N171 1.937 . S
Ni78 O175 2.071 1_545 S
Ni78 O176 2.071 . S
Ni78 O179 2.071 1_545 S
Ni79 N165 1.937 . S
Ni79 N167 1.937 1_655 S
Ni79 N172 1.937 1_655 S
Ni79 O174 2.071 1_565 S
Ni79 O177 2.071 . S
Ni79 O179 2.071 1_655 S
Ni80 N151 1.937 . S
Ni80 N156 1.937 . S
Ni80 N161 1.937 . S
Ni80 O174 2.071 1_455 S
Ni80 O176 2.071 . S
Ni80 O179 2.071 1_545 S
Ni81 N150 1.937 . S
Ni81 N154 1.937 . S
Ni81 N158 1.937 . S
Ni81 O175 2.071 . S
Ni81 O177 2.071 1_455 S
Ni81 O179 2.071 . S
Ni82 N152 1.937 . S
Ni82 N157 1.937 . S
Ni82 N159 1.937 1_565 S
Ni82 O174 2.071 1_565 S
Ni82 O177 2.071 . S
Ni82 O178 2.071 1_565 S
Ni83 N153 1.937 . S
Ni83 N155 1.937 . S
Ni83 N160 1.937 . S
Ni83 O175 2.071 1_545 S
Ni83 O176 2.071 . S
Ni83 O178 2.071 1_455 S
H84 O174 0.950 . S
H85 O175 0.950 . S
H86 O176 0.950 . S
H87 O177 0.950 . S
H88 O178 0.950 . S
H89 O179 0.950 . S
H90 C126 0.950 . S
H91 C127 0.950 . S
H92 C128 0.950 . S
H93 C129 0.950 . S
H94 C130 0.950 . S
H95 C131 0.950 . S
H96 C132 0.950 . S
H97 C133 0.950 . S
H98 C134 0.950 . S
H99 C135 0.950 . S
H100 C136 0.950 . S
H101 C137 0.950 . S
H102 C138 0.950 . S
H103 C139 0.950 . S
H104 C140 0.950 . S
H105 C141 0.950 . S
H106 C142 0.950 . S
H107 C143 0.950 . S
H108 C144 0.950 . S
H109 C145 0.950 . S
H110 C146 0.950 . S
H111 C147 0.950 . S
H112 C148 0.950 . S
H113 C149 0.950 . S
C114 C126 1.360 . A
C114 C138 1.360 1_455 A
C115 C127 1.360 . A
C115 C139 1.360 1_455 A
C116 C128 1.360 . A
C116 C141 1.360 . A
C117 C129 1.360 . A
C117 C140 1.360 . A
C118 C130 1.360 . A
C118 C148 1.360 . A
C119 C131 1.360 1_655 A
C119 C149 1.360 . A
C120 C132 1.360 . A
C120 C147 1.360 . A
C121 C133 1.360 . A
C121 C146 1.360 . A
C122 C134 1.360 . A
C122 C145 1.360 . A
C123 C135 1.360 . A
C123 C144 1.360 . A
C124 C136 1.360 1_655 A
C124 C142 1.360 1_545 A
C125 C137 1.348 1_565 A
C125 C143 1.370 . A
C126 N150 1.360 . A
C127 N151 1.360 . A
C128 N152 1.360 . A
C129 N153 1.360 . A
C130 N154 1.360 . A
C131 N155 1.360 . A
C132 N156 1.360 . A
C133 N157 1.360 . A
C134 N158 1.360 . A
C135 N159 1.360 . A
C136 N160 1.360 . A
C137 N161 1.360 . A
C138 N162 1.360 . A
C139 N163 1.360 . A
C140 N164 1.360 . A
C141 N165 1.360 . A
C142 N166 1.360 . A
C143 N167 1.360 . A
C144 N168 1.360 . A
C145 N169 1.360 . A
C146 N170 1.360 . A
C147 N171 1.360 . A
C148 N172 1.360 . A
C149 N173 1.360 . A
N150 N162 1.360 1_455 A
N151 N163 1.360 1_455 A
N152 N165 1.360 . A
N153 N164 1.360 . A
N154 N172 1.360 . A
N155 N173 1.360 1_455 A
N156 N171 1.360 . A
N157 N170 1.360 . A
N158 N169 1.360 . A
N159 N168 1.360 . A
N160 N166 1.360 1_445 A
N161 N167 1.360 1_545 A
Ni180 N267 1.937 . S
Ni180 N272 1.937 . S
Ni180 N277 1.937 . S
Ni180 O278 2.071 . S
Ni180 O280 2.071 . S
Ni180 O282 2.071 . S
Ni181 N266 1.937 . S
Ni181 N270 1.937 . S
Ni181 N274 1.937 . S
Ni181 O279 2.071 . S
Ni181 O281 2.071 . S
Ni181 O282 2.071 . S
Ni182 N268 1.937 . S
Ni182 N273 1.937 . S
Ni182 N275 1.937 . S
Ni182 O279 2.071 . S
Ni182 O280 2.071 . S
Ni182 O283 2.071 . S
Ni183 N269 1.937 . S
Ni183 N271 1.937 . S
Ni183 N276 1.937 . S
Ni183 O278 2.071 . S
Ni183 O281 2.071 . S
Ni183 O283 2.071 . S
Ni184 N255 1.937 . S
Ni184 N260 1.937 . S
Ni184 N265 1.937 . S
Ni184 O278 2.071 . S
Ni184 O280 2.071 . S
Ni184 O283 2.071 . S
Ni185 N254 1.937 . S
Ni185 N258 1.937 . S
Ni185 N262 1.937 . S
Ni185 O279 2.071 . S
Ni185 O281 2.071 . S
Ni185 O283 2.071 . S
Ni186 N256 1.937 . S
Ni186 N261 1.937 . S
Ni186 N263 1.937 . S
Ni186 O278 2.071 . S
Ni186 O281 2.071 . S
Ni186 O282 2.071 . S
Ni187 N257 1.937 . S
Ni187 N259 1.937 . S
Ni187 N264 1.937 . S
Ni187 O279 2.071 . S
Ni187 O280 2.071 . S
Ni187 O282 2.071 . S
H188 O278 0.950 . S
H189 O279 0.950 . S
H190 O280 0.950 . S
H191 O281 0.950 . S
H192 O282 0.950 . S
H193 O283 0.950 . S
H194 C230 0.950 . S
H195 C231 0.950 1_554 S
H196 C232 0.950 . S
H197 C233 0.950 . S
H198 C234 0.950 . S
H199 C235 0.950 . S
H200 C236 0.950 . S
H201 C237 0.950 . S
H202 C238 0.950 . S
H203 C239 0.950 . S
H204 C240 0.950 . S
H205 C241 0.950 . S
H206 C242 0.950 . S
H207 C243 0.950 . S
H208 C244 0.950 . S
H209 C245 0.950 . S
H210 C246 0.950 . S
H211 C247 0.950 . S
H212 C248 0.950 . S
H213 C249 0.950 . S
H214 C250 0.950 . S
H215 C251 0.950 . S
H216 C252 0.950 . S
H217 C253 0.950 . S
C218 C230 1.360 . A
C218 C242 1.360 . A
C219 C231 1.360 . A
C219 C243 1.360 . A
C220 C232 1.360 . A
C220 C245 1.360 . A
C221 C233 1.360 . A
C221 C244 1.360 . A
C222 C234 1.360 . A
C222 C252 1.360 . A
C223 C235 1.360 . A
C223 C253 1.360 . A
C224 C236 1.360 . A
C224 C251 1.360 . A
C225 C237 1.360 . A
C225 C250 1.360 . A
C226 C238 1.360 . A
C226 C249 1.360 . A
C227 C239 1.360 . A
C227 C248 1.360 . A
C228 C240 1.360 . A
C228 C246 1.360 . A
C229 C241 1.360 . A
C229 C247 1.360 . A
C230 N254 1.360 . A
C231 N255 1.360 . A
C232 N256 1.360 . A
C233 N257 1.360 . A
C234 N258 1.360 . A
C235 N259 1.360 . A
C236 N260 1.360 . A
C237 N261 1.360 . A
C238 N262 1.360 . A
C239 N263 1.360 . A
C240 N264 1.360 . A
C241 N265 1.360 1_554 A
C242 N266 1.360 . A
C243 N267 1.360 . A
C244 N268 1.360 . A
C245 N269 1.360 . A
C246 N270 1.360 . A
C247 N271 1.360 1_554 A
C248 N272 1.360 . A
C249 N273 1.360 . A
C250 N274 1.360 . A
C251 N275 1.360 . A
C252 N276 1.360 . A
C253 N277 1.360 . A
N254 N266 1.360 . A
N255 N267 1.360 . A
N256 N269 1.360 . A
N257 N268 1.360 . A
N258 N276 1.360 . A
N259 N277 1.360 . A
N260 N275 1.360 . A
N261 N274 1.360 . A
N262 N273 1.360 . A
N263 N272 1.360 . A
N264 N270 1.360 . A
N265 N271 1.360 . A
H284 O291 0.859 . S
C285 C286 1.402 1_455 A
C285 C290 1.382 . A
C286 C287 1.389 1_655 A
C286 H294 0.950 . S
C287 C288 1.387 . A
C288 C289 1.391 . A
C288 H295 0.950 . S
C289 C290 1.391 . A
C289 C292 1.491 . S
C290 H296 0.949 . S
O291 C292 1.297 . S
C292 O293 1.224 . D
H297 O304 0.859 . S
C298 C299 1.402 . A
C298 C303 1.382 . A
C299 C300 1.389 . A
C299 H307 0.950 . S
C300 C301 1.387 . A
C301 C302 1.391 . A
C301 H308 0.950 . S
C302 C303 1.391 . A
C302 C305 1.491 . S
C303 H309 0.949 . S
O304 C305 1.297 . S
C305 O306 1.224 . D
H310 O317 0.859 . S
C311 C312 1.402 . A
C311 C316 1.382 . A
C312 C313 1.389 . A
C312 H320 0.950 1_655 S
C313 C314 1.387 . A
C314 C315 1.391 . A
C314 H321 0.950 . S
C315 C316 1.391 . A
C315 C318 1.491 . S
C316 H322 0.949 . S
O317 C318 1.297 . S
C318 O319 1.224 1_554 D
H323 O330 0.859 . S
C324 C325 1.402 . A
C324 C329 1.382 . A
C325 C326 1.389 . A
C325 H333 0.950 . S
C326 C327 1.387 . A
C327 C328 1.391 . A
C327 H334 0.950 . S
C328 C329 1.391 . A
C328 C331 1.491 . S
C329 H335 0.949 . S
O330 C331 1.297 . S
C331 O332 1.224 . D
H336 O343 0.859 . S
C337 C338 1.402 . A
C337 C342 1.382 . A
C338 C339 1.389 . A
C338 H346 0.950 . S
C339 C340 1.387 . A
C340 C341 1.391 . A
C340 H347 0.950 . S
C341 C342 1.391 . A
C341 C344 1.491 . S
C342 H348 0.949 . S
O343 C344 1.297 . S
C344 O345 1.224 . D
H349 O356 0.859 . S
C350 C351 1.402 . A
C350 C355 1.382 . A
C351 C352 1.389 . A
C351 H359 0.950 . S
C352 C353 1.387 . A
C353 C354 1.391 . A
C353 H360 0.950 . S
C354 C355 1.391 . A
C354 C357 1.491 . S
C355 H361 0.949 . S
O356 C357 1.297 1_545 S
C357 O358 1.224 . D
H362 O369 0.859 . S
C363 C364 1.402 . A
C363 C368 1.382 1_556 A
C364 C365 1.389 . A
C364 H372 0.950 . S
C365 C366 1.387 1_556 A
C366 C367 1.391 . A
C366 H373 0.950 . S
C367 C368 1.391 . A
C367 C370 1.491 . S
C368 H374 0.949 . S
O369 C370 1.297 . S
C370 O371 1.224 . D
H375 O382 0.859 . S
C376 C377 1.402 . A
C376 C381 1.382 . A
C377 C378 1.389 . A
C377 H385 0.950 . S
C378 C379 1.387 . A
C379 C380 1.391 . A
C379 H386 0.950 . S
C380 C381 1.391 . A
C380 C383 1.491 . S
C381 H387 0.949 . S
O382 C383 1.297 . S
C383 O384 1.224 . D
H388 O395 0.859 . S
C389 C390 1.402 . A
C389 C394 1.382 . A
C390 C391 1.389 . A
C390 H398 0.950 . S
C391 C392 1.387 . A
C392 C393 1.391 . A
C392 H399 0.950 . S
C393 C394 1.391 . A
C393 C396 1.491 . S
C394 H400 0.949 . S
O395 C396 1.297 . S
C396 O397 1.224 . D
H401 O408 0.859 . S
C402 C403 1.402 . A
C402 C407 1.382 . A
C403 C404 1.389 . A
C403 H411 0.950 . S
C404 C405 1.387 . A
C405 C406 1.391 . A
C405 H412 0.950 . S
C406 C407 1.391 . A
C406 C409 1.491 . S
C407 H413 0.949 . S
O408 C409 1.297 . S
C409 O410 1.224 . D
H414 O421 0.859 . S
C415 C416 1.402 . A
C415 C420 1.382 . A
C416 C417 1.389 . A
C416 H424 0.950 . S
C417 C418 1.387 . A
C418 C419 1.391 . A
C418 H425 0.950 . S
C419 C420 1.391 . A
C419 C422 1.491 . S
C420 H426 0.949 . S
O421 C422 1.297 . S
C422 O423 1.224 . D
H427 O434 0.859 . S
C428 C429 1.402 . A
C428 C433 1.382 . A
C429 C430 1.389 . A
C429 H437 0.950 . S
C430 C431 1.387 . A
C431 C432 1.391 . A
C431 H438 0.950 . S
C432 C433 1.391 . A
C432 C435 1.491 . S
C433 H439 0.949 . S
O434 C435 1.297 . S
C435 O436 1.224 . D
C287 C114 1.412 . S
C285 C18 1.148 . S
C300 C223 1.618 . S
C298 C37 1.187 . S
C313 C119 1.664 . S
C311 C56 1.458 . S
C326 C218 1.529 . S
C324 C75 1.126 . S
C337 C17 1.579 . S
C339 C227 1.617 . S
C350 C36 1.427 . S
C352 C116 1.394 . S
C365 C224 1.486 . S
C363 C2 1.348 . S
C376 C40 1.991 . S
C378 C226 2.172 . S
C389 C55 1.316 . S
C391 C220 1.345 . S
C402 C59 1.336 . S
C404 C120 1.490 . S
C415 C21 1.952 . S
C417 C122 2.140 . S
C430 C123 1.326 . S
C428 C74 1.829 . S
