# Generated by pormake.
# Topology umf, (4)-cn, num edge types: 1
# Building blocks:
#     Node 0, Type 0, BuildingBlock: N206, # of connection points: 5
#     Node 1, Type 0, BuildingBlock: N206, # of connection points: 5
#     Node 2, Type 0, BuildingBlock: N206, # of connection points: 5
#     Node 3, Type 0, BuildingBlock: N206, # of connection points: 5
#     Node 4, Type 0, BuildingBlock: N206, # of connection points: 5
#     Node 5, Type 0, BuildingBlock: N206, # of connection points: 5
#     Node 6, Type 0, BuildingBlock: N206, # of connection points: 5
#     Node 7, Type 0, BuildingBlock: N206, # of connection points: 5
#     Edge 8, Type (0, 0), BuildingBlock: E143, # of connection points: 2
#     Edge 9, Type (0, 0), BuildingBlock: E143, # of connection points: 2
#     Edge 10, Type (0, 0), BuildingBlock: E143, # of connection points: 2
#     Edge 11, Type (0, 0), BuildingBlock: E143, # of connection points: 2
#     Edge 12, Type (0, 0), BuildingBlock: E143, # of connection points: 2
#     Edge 13, Type (0, 0), BuildingBlock: E143, # of connection points: 2
#     Edge 14, Type (0, 0), BuildingBlock: E143, # of connection points: 2
#     Edge 15, Type (0, 0), BuildingBlock: E143, # of connection points: 2
#     Edge 16, Type (0, 0), BuildingBlock: E143, # of connection points: 2
#     Edge 17, Type (0, 0), BuildingBlock: E143, # of connection points: 2
#     Edge 18, Type (0, 0), BuildingBlock: E143, # of connection points: 2
#     Edge 19, Type (0, 0), BuildingBlock: E143, # of connection points: 2
#     Edge 20, Type (0, 0), BuildingBlock: E143, # of connection points: 2
#     Edge 21, Type (0, 0), BuildingBlock: E143, # of connection points: 2
#     Edge 22, Type (0, 0), BuildingBlock: E143, # of connection points: 2
#     Edge 23, Type (0, 0), BuildingBlock: E143, # of connection points: 2
# Relax obj value: 0.007
# Max RMSD: 0.217
# Mean RMSD: 0.217
data_umf+N206+E143
_symmetry_space_group_name_H-M    P1
_symmetry_Int_Tables_number       1
_symmetry_cell_setting            triclinic
loop_
_symmetry_equiv_pos_as_xyz
'x, y, z'
_cell_length_a     22.436
_cell_length_b     22.436
_cell_length_c     57.939
_cell_angle_alpha  90.000
_cell_angle_beta   90.000
_cell_angle_gamma  90.000
loop_
_atom_site_label
_atom_site_type_symbol
_atom_site_fract_x
_atom_site_fract_y
_atom_site_fract_z
_atom_type_partial_charge
Cd0 Cd 0.24700 0.92808 0.59740 0.00000
Cd1 Cd 0.24527 0.91165 0.65500 0.00000
O2 O 0.25249 0.93423 0.56225 0.00000
O3 O 0.23282 0.01860 0.57950 0.00000
O4 O 0.23995 0.83331 0.64116 0.00000
O5 O 0.26263 0.84137 0.60358 0.00000
O6 O 0.15991 0.93065 0.60574 0.00000
O7 O 0.18928 0.96487 0.63920 0.00000
O8 O 0.32145 0.96266 0.61061 0.00000
O9 O 0.32653 0.93549 0.64769 0.00000
C10 C 0.24196 0.98824 0.56159 0.00000
C11 C 0.25431 0.81222 0.62194 0.00000
C12 C 0.15053 0.95219 0.62488 0.00000
O13 O 0.15622 0.88461 0.68263 0.00000
O14 O 0.24732 0.92098 0.68869 0.00000
C15 C 0.19538 0.90580 0.69536 0.00000
C16 C 0.34748 0.95632 0.62915 0.00000
Cd17 Cd 0.07192 0.75300 0.90261 0.00000
Cd18 Cd 0.08836 0.75473 0.84500 0.00000
O19 O 0.06577 0.74751 0.93775 0.00000
O20 O 0.98140 0.76719 0.92050 0.00000
O21 O 0.16669 0.76006 0.85884 0.00000
O22 O 0.15864 0.73737 0.89643 0.00000
O23 O 0.06935 0.84009 0.89426 0.00000
O24 O 0.03513 0.81072 0.86080 0.00000
O25 O 0.03734 0.67855 0.88939 0.00000
O26 O 0.06451 0.67347 0.85231 0.00000
C27 C 0.01176 0.75804 0.93842 0.00000
C28 C 0.18778 0.74569 0.87806 0.00000
C29 C 0.04781 0.84947 0.87512 0.00000
O30 O 0.11539 0.84378 0.81737 0.00000
O31 O 0.07902 0.75268 0.81131 0.00000
C32 C 0.09420 0.80462 0.80465 0.00000
C33 C 0.04368 0.65252 0.87085 0.00000
Cd34 Cd 0.75300 0.07193 0.59739 0.00000
Cd35 Cd 0.75473 0.08836 0.65500 0.00000
O36 O 0.74751 0.06578 0.56225 0.00000
O37 O 0.76719 0.98140 0.57950 0.00000
O38 O 0.76006 0.16669 0.64116 0.00000
O39 O 0.73737 0.15864 0.60357 0.00000
O40 O 0.84009 0.06936 0.60574 0.00000
O41 O 0.81072 0.03514 0.63920 0.00000
O42 O 0.67855 0.03735 0.61061 0.00000
O43 O 0.67347 0.06452 0.64769 0.00000
C44 C 0.75805 0.01177 0.56158 0.00000
C45 C 0.74569 0.18779 0.62194 0.00000
C46 C 0.84947 0.04781 0.62488 0.00000
O47 O 0.84379 0.11539 0.68263 0.00000
O48 O 0.75269 0.07903 0.68869 0.00000
C49 C 0.80462 0.09421 0.69535 0.00000
C50 C 0.65252 0.04369 0.62915 0.00000
Cd51 Cd 0.92807 0.75300 0.09739 0.00000
Cd52 Cd 0.91164 0.75473 0.15500 0.00000
O53 O 0.93422 0.74751 0.06225 0.00000
O54 O 0.01860 0.76719 0.07950 0.00000
O55 O 0.83331 0.76006 0.14116 0.00000
O56 O 0.84136 0.73737 0.10357 0.00000
O57 O 0.93064 0.84009 0.10574 0.00000
O58 O 0.96486 0.81072 0.13920 0.00000
O59 O 0.96265 0.67855 0.11061 0.00000
O60 O 0.93549 0.67347 0.14769 0.00000
C61 C 0.98823 0.75804 0.06158 0.00000
C62 C 0.81221 0.74569 0.12194 0.00000
C63 C 0.95219 0.84947 0.12488 0.00000
O64 O 0.88461 0.84378 0.18263 0.00000
O65 O 0.92097 0.75268 0.18869 0.00000
C66 C 0.90579 0.80462 0.19536 0.00000
C67 C 0.95631 0.65252 0.12915 0.00000
Cd68 Cd 0.07192 0.24700 0.09739 0.00000
Cd69 Cd 0.08836 0.24527 0.15500 0.00000
O70 O 0.06577 0.25249 0.06225 0.00000
O71 O 0.98140 0.23281 0.07949 0.00000
O72 O 0.16669 0.23994 0.14116 0.00000
O73 O 0.15863 0.26263 0.10357 0.00000
O74 O 0.06935 0.15991 0.10574 0.00000
O75 O 0.03513 0.18928 0.13920 0.00000
O76 O 0.03734 0.32145 0.11060 0.00000
O77 O 0.06451 0.32653 0.14768 0.00000
C78 C 0.01176 0.24196 0.06158 0.00000
C79 C 0.18778 0.25431 0.12194 0.00000
C80 C 0.04781 0.15053 0.12488 0.00000
O81 O 0.11539 0.15622 0.18263 0.00000
O82 O 0.07902 0.24732 0.18868 0.00000
C83 C 0.09420 0.19538 0.19535 0.00000
C84 C 0.04368 0.34748 0.12914 0.00000
Cd85 Cd 0.24700 0.07192 0.40260 0.00000
Cd86 Cd 0.24527 0.08835 0.34500 0.00000
O87 O 0.25249 0.06577 0.43775 0.00000
O88 O 0.23282 0.98140 0.42050 0.00000
O89 O 0.23995 0.16669 0.35884 0.00000
O90 O 0.26263 0.15863 0.39643 0.00000
O91 O 0.15991 0.06935 0.39426 0.00000
O92 O 0.18928 0.03513 0.36080 0.00000
O93 O 0.32145 0.03734 0.38939 0.00000
O94 O 0.32653 0.06451 0.35231 0.00000
C95 C 0.24196 0.01176 0.43842 0.00000
C96 C 0.25431 0.18778 0.37806 0.00000
C97 C 0.15053 0.04780 0.37512 0.00000
O98 O 0.15622 0.11538 0.31737 0.00000
O99 O 0.24732 0.07902 0.31131 0.00000
C100 C 0.19538 0.09420 0.30464 0.00000
C101 C 0.34748 0.04368 0.37085 0.00000
Cd102 Cd 0.92807 0.24700 0.90261 0.00000
Cd103 Cd 0.91164 0.24527 0.84500 0.00000
O104 O 0.93422 0.25249 0.93775 0.00000
O105 O 0.01860 0.23281 0.92050 0.00000
O106 O 0.83331 0.23994 0.85884 0.00000
O107 O 0.84136 0.26263 0.89643 0.00000
O108 O 0.93064 0.15991 0.89426 0.00000
O109 O 0.96486 0.18928 0.86080 0.00000
O110 O 0.96265 0.32145 0.88940 0.00000
O111 O 0.93549 0.32653 0.85231 0.00000
C112 C 0.98823 0.24196 0.93842 0.00000
C113 C 0.81221 0.25431 0.87806 0.00000
C114 C 0.95219 0.15053 0.87512 0.00000
O115 O 0.88461 0.15622 0.81737 0.00000
O116 O 0.92097 0.24732 0.81131 0.00000
C117 C 0.90580 0.19538 0.80465 0.00000
C118 C 0.95631 0.34748 0.87086 0.00000
Cd119 Cd 0.75300 0.92807 0.40261 0.00000
Cd120 Cd 0.75473 0.91164 0.34500 0.00000
O121 O 0.74751 0.93422 0.43775 0.00000
O122 O 0.76719 0.01860 0.42050 0.00000
O123 O 0.76006 0.83331 0.35884 0.00000
O124 O 0.73737 0.84136 0.39643 0.00000
O125 O 0.84009 0.93064 0.39426 0.00000
O126 O 0.81072 0.96486 0.36080 0.00000
O127 O 0.67855 0.96265 0.38939 0.00000
O128 O 0.67347 0.93548 0.35231 0.00000
C129 C 0.75805 0.98823 0.43842 0.00000
C130 C 0.74569 0.81221 0.37806 0.00000
C131 C 0.84947 0.95219 0.37512 0.00000
O132 O 0.84379 0.88461 0.31737 0.00000
O133 O 0.75269 0.92097 0.31131 0.00000
C134 C 0.80462 0.90579 0.30464 0.00000
C135 C 0.65252 0.95631 0.37085 0.00000
C136 C 0.41667 0.94696 0.64001 0.00000
C137 C 0.48443 0.02457 0.62547 0.00000
C138 C 0.54783 0.03930 0.61782 0.00000
C139 C 0.59401 0.02238 0.63536 0.00000
C140 C 0.58630 0.95819 0.64350 0.00000
C141 C 0.52250 0.94718 0.65137 0.00000
N142 N 0.47958 0.96007 0.63273 0.00000
H143 H 0.48852 0.93702 0.62049 0.00000
H144 H 0.39859 0.98331 0.64579 0.00000
H145 H 0.41733 0.91822 0.65253 0.00000
H146 H 0.47329 0.05009 0.63826 0.00000
H147 H 0.45704 0.03218 0.61285 0.00000
H148 H 0.55613 0.01856 0.60348 0.00000
H149 H 0.55059 0.08170 0.61482 0.00000
H150 H 0.58721 0.04787 0.64886 0.00000
H151 H 0.59599 0.93113 0.63098 0.00000
H152 H 0.61344 0.95034 0.65616 0.00000
H153 H 0.51830 0.90588 0.65614 0.00000
H154 H 0.51377 0.97220 0.66459 0.00000
C155 C 0.97462 0.40865 0.85546 0.00000
C156 C 0.00845 0.48910 0.88117 0.00000
C157 C 0.01031 0.55623 0.88535 0.00000
C158 C 0.03441 0.59052 0.86518 0.00000
C159 C 0.00349 0.57316 0.84272 0.00000
C160 C 0.00462 0.50585 0.83943 0.00000
N161 N 0.97597 0.47496 0.85899 0.00000
H162 H 0.93821 0.48817 0.86027 0.00000
H163 H 0.00912 0.39111 0.86292 0.00000
H164 H 0.97732 0.40020 0.83907 0.00000
H165 H 0.04876 0.47367 0.88037 0.00000
H166 H 0.98841 0.46972 0.89397 0.00000
H167 H 0.97030 0.57011 0.88873 0.00000
H168 H 0.03487 0.56416 0.89876 0.00000
H169 H 0.07635 0.57895 0.86354 0.00000
H170 H 0.96248 0.58689 0.84303 0.00000
H171 H 0.02343 0.59224 0.82984 0.00000
H172 H 0.98393 0.49567 0.82524 0.00000
H173 H 0.04557 0.49249 0.83801 0.00000
C174 C 0.02419 0.40830 0.11459 0.00000
C175 C 0.01523 0.49596 0.13987 0.00000
C176 C 0.98185 0.55395 0.14461 0.00000
C177 C 0.97951 0.59456 0.12405 0.00000
C178 C 0.95794 0.56198 0.10251 0.00000
C179 C 0.99412 0.50549 0.09857 0.00000
N180 N 0.99069 0.46530 0.11869 0.00000
H181 H 0.95214 0.45638 0.12130 0.00000
H182 H 0.06419 0.41236 0.12076 0.00000
H183 H 0.02746 0.40159 0.09810 0.00000
H184 H 0.05721 0.50439 0.13763 0.00000
H185 H 0.01146 0.46968 0.15309 0.00000
H186 H 0.94150 0.54455 0.14939 0.00000
H187 H 0.00116 0.57460 0.15725 0.00000
H188 H 0.02063 0.60707 0.12097 0.00000
H189 H 0.91617 0.55172 0.10426 0.00000
H190 H 0.96177 0.58796 0.08922 0.00000
H191 H 0.97910 0.48496 0.08500 0.00000
H192 H 0.03540 0.51597 0.09572 0.00000
C193 C 0.58294 0.94556 0.36060 0.00000
C194 C 0.51573 0.02508 0.37393 0.00000
C195 C 0.45263 0.04086 0.38164 0.00000
C196 C 0.40577 0.02159 0.36475 0.00000
C197 C 0.41318 0.95637 0.35790 0.00000
C198 C 0.47666 0.94426 0.34988 0.00000
N199 N 0.52032 0.95968 0.36797 0.00000
H200 H 0.51187 0.93834 0.38072 0.00000
H201 H 0.60076 0.98106 0.35398 0.00000
H202 H 0.58179 0.91515 0.34870 0.00000
H203 H 0.52634 0.04881 0.36056 0.00000
H204 H 0.54361 0.03440 0.38621 0.00000
H205 H 0.44491 0.02213 0.39643 0.00000
H206 H 0.44997 0.08362 0.38378 0.00000
H207 H 0.41202 0.04518 0.35071 0.00000
H208 H 0.40400 0.93107 0.37101 0.00000
H209 H 0.38555 0.94681 0.34558 0.00000
H210 H 0.48069 0.90236 0.34595 0.00000
H211 H 0.48486 0.96744 0.33612 0.00000
C212 C 0.20597 0.97442 0.46370 0.00000
C213 C 0.25456 0.02464 0.49642 0.00000
C214 C 0.27311 0.01992 0.52170 0.00000
C215 C 0.22264 0.00298 0.53736 0.00000
C216 C 0.18939 0.94826 0.52852 0.00000
C217 C 0.17105 0.95671 0.50343 0.00000
N218 N 0.22328 0.96848 0.48864 0.00000
H219 H 0.24890 0.93779 0.49001 0.00000
H220 H 0.19994 0.01625 0.46016 0.00000
H221 H 0.16846 0.95387 0.46120 0.00000
H222 H 0.22819 0.05848 0.49444 0.00000
H223 H 0.28958 0.03116 0.48693 0.00000
H224 H 0.30452 0.99043 0.52307 0.00000
H225 H 0.28921 0.05791 0.52664 0.00000
H226 H 0.19422 0.03618 0.53700 0.00000
H227 H 0.21483 0.91344 0.52981 0.00000
H228 H 0.15421 0.94159 0.53789 0.00000
H229 H 0.15081 0.92107 0.49803 0.00000
H230 H 0.14337 0.98977 0.50230 0.00000
C231 C 0.03405 0.76690 0.96266 0.00000
C232 C 0.97410 0.74628 0.99731 0.00000
C233 C 0.96366 0.76124 0.02268 0.00000
C234 C 0.01900 0.75617 0.03708 0.00000
C235 C 0.07107 0.79002 0.02637 0.00000
C236 C 0.07973 0.77181 0.00129 0.00000
N237 N 0.02519 0.78238 0.98765 0.00000
H238 H 0.01564 0.82127 0.98865 0.00000
H239 H 0.02081 0.72628 0.96008 0.00000
H240 H 0.07626 0.76881 0.95907 0.00000
H241 H 0.98288 0.70416 0.99576 0.00000
H242 H 0.93820 0.75464 0.98855 0.00000
H243 H 0.94837 0.80157 0.02380 0.00000
H244 H 0.93359 0.73458 0.02881 0.00000
H245 H 0.03016 0.71391 0.03711 0.00000
H246 H 0.06343 0.83254 0.02720 0.00000
H247 H 0.10716 0.78170 0.03500 0.00000
H248 H 0.11244 0.79451 0.99469 0.00000
H249 H 0.09017 0.72991 0.00010 0.00000
C250 C 0.79974 0.01163 0.46345 0.00000
C251 C 0.73711 0.98348 0.49656 0.00000
C252 C 0.72290 0.99470 0.52195 0.00000
C253 C 0.77671 0.99095 0.53726 0.00000
C254 C 0.82793 0.02892 0.52812 0.00000
C255 C 0.84053 0.01432 0.50293 0.00000
N256 N 0.78711 0.02351 0.48850 0.00000
H257 H 0.77522 0.06164 0.49000 0.00000
H258 H 0.78918 0.97069 0.45993 0.00000
H259 H 0.84213 0.01632 0.46068 0.00000
H260 H 0.74848 0.94215 0.49445 0.00000
H261 H 0.70184 0.99090 0.48732 0.00000
H262 H 0.70519 0.03394 0.52349 0.00000
H263 H 0.69374 0.96569 0.52705 0.00000
H264 H 0.79028 0.94942 0.53675 0.00000
H265 H 0.81776 0.07080 0.52954 0.00000
H266 H 0.86340 0.02157 0.53725 0.00000
H267 H 0.87260 0.03958 0.49734 0.00000
H268 H 0.85345 0.97321 0.50166 0.00000
C269 C 0.95724 0.23459 0.03600 0.00000
C270 C 0.02800 0.22902 0.00363 0.00000
C271 C 0.04055 0.24661 0.97866 0.00000
C272 C 0.99133 0.22951 0.96243 0.00000
C273 C 0.93069 0.25039 0.97118 0.00000
C274 C 0.92067 0.23003 0.99594 0.00000
N275 N 0.96804 0.25233 0.01136 0.00000
H276 H 0.96873 0.29240 0.01053 0.00000
H277 H 0.97870 0.19796 0.03918 0.00000
H278 H 0.91504 0.22679 0.03812 0.00000
H279 H 0.02868 0.18596 0.00504 0.00000
H280 H 0.05892 0.24507 0.01355 0.00000
H281 H 0.04649 0.28940 0.97791 0.00000
H282 H 0.07716 0.22763 0.97370 0.00000
H283 H 0.99009 0.18582 0.96219 0.00000
H284 H 0.92865 0.29356 0.97045 0.00000
H285 H 0.89956 0.23434 0.96138 0.00000
H286 H 0.88229 0.24455 0.00129 0.00000
H287 H 0.91987 0.18684 0.99648 0.00000
C288 C 0.19538 0.92309 0.72730 0.00000
C289 C 0.13956 0.83669 0.74202 0.00000
C290 C 0.09602 0.81399 0.76025 0.00000
C291 C 0.11554 0.82754 0.78445 0.00000
C292 C 0.13201 0.89307 0.78737 0.00000
C293 C 0.17658 0.91215 0.76899 0.00000
N294 N 0.15276 0.90210 0.74557 0.00000
H295 H 0.11844 0.92256 0.74411 0.00000
H296 H 0.21976 0.88974 0.72236 0.00000
H297 H 0.22161 0.95298 0.73390 0.00000
H298 H 0.17633 0.81410 0.74289 0.00000
H299 H 0.12263 0.83081 0.72679 0.00000
H300 H 0.05731 0.83198 0.75758 0.00000
H301 H 0.09166 0.77125 0.75854 0.00000
H302 H 0.15208 0.80457 0.78713 0.00000
H303 H 0.09637 0.91739 0.78618 0.00000
H304 H 0.14914 0.89922 0.80255 0.00000
H305 H 0.18576 0.95417 0.77093 0.00000
H306 H 0.21326 0.88983 0.77089 0.00000
C307 C 0.83787 0.06905 0.72278 0.00000
C308 C 0.83627 0.15892 0.74711 0.00000
C309 C 0.87103 0.19779 0.76402 0.00000
C310 C 0.89591 0.16340 0.78402 0.00000
C311 C 0.93009 0.10835 0.77606 0.00000
C312 C 0.89222 0.07105 0.75973 0.00000
N313 N 0.87318 0.10614 0.73949 0.00000
H314 H 0.90588 0.11989 0.73222 0.00000
H315 H 0.79575 0.07388 0.72608 0.00000
H316 H 0.84791 0.02737 0.72501 0.00000
H317 H 0.79997 0.14494 0.75440 0.00000
H318 H 0.82519 0.18241 0.73372 0.00000
H319 H 0.90352 0.21697 0.75584 0.00000
H320 H 0.84495 0.22878 0.76982 0.00000
H321 H 0.86167 0.14900 0.79295 0.00000
H322 H 0.96636 0.12055 0.76825 0.00000
H323 H 0.94114 0.08456 0.78936 0.00000
H324 H 0.91510 0.03677 0.75458 0.00000
H325 H 0.85738 0.05649 0.76787 0.00000
C326 C 0.88377 0.85396 0.21151 0.00000
C327 C 0.88207 0.84049 0.25365 0.00000
C328 C 0.84633 0.84880 0.27583 0.00000
C329 C 0.82455 0.91145 0.27911 0.00000
C330 C 0.79287 0.93478 0.25764 0.00000
C331 C 0.83166 0.92635 0.23633 0.00000
N332 N 0.84757 0.86310 0.23304 0.00000
H333 H 0.81374 0.84173 0.23182 0.00000
H334 H 0.92576 0.85481 0.21550 0.00000
H335 H 0.87611 0.88661 0.20094 0.00000
H336 H 0.91949 0.86187 0.25485 0.00000
H337 H 0.89106 0.79855 0.25155 0.00000
H338 H 0.81237 0.82204 0.27557 0.00000
H339 H 0.87107 0.83784 0.28886 0.00000
H340 H 0.86004 0.93635 0.28126 0.00000
H341 H 0.75554 0.91359 0.25558 0.00000
H342 H 0.78392 0.97675 0.25960 0.00000
H343 H 0.81034 0.94061 0.22282 0.00000
H344 H 0.86773 0.94982 0.23791 0.00000
C345 C 0.07303 0.18948 0.22694 0.00000
C346 C 0.16442 0.14462 0.24272 0.00000
C347 C 0.19052 0.10155 0.26043 0.00000
C348 C 0.17005 0.11399 0.28460 0.00000
C349 C 0.10241 0.11976 0.28600 0.00000
C350 C 0.07974 0.16442 0.26827 0.00000
N351 N 0.09730 0.14706 0.24466 0.00000
H352 H 0.08274 0.11043 0.24173 0.00000
H353 H 0.10294 0.21952 0.22362 0.00000
H354 H 0.03838 0.20953 0.23328 0.00000
H355 H 0.18081 0.18410 0.24518 0.00000
H356 H 0.17543 0.13181 0.22731 0.00000
H357 H 0.17928 0.06121 0.25626 0.00000
H358 H 0.23362 0.10404 0.25988 0.00000
H359 H 0.18654 0.15295 0.28886 0.00000
H360 H 0.08420 0.08120 0.28319 0.00000
H361 H 0.09112 0.13274 0.30135 0.00000
H362 H 0.03657 0.16674 0.26919 0.00000
H363 H 0.09570 0.20357 0.27174 0.00000
C364 C 0.10126 0.00010 0.63439 0.00000
C365 C 0.99730 0.96917 0.62850 0.00000
C366 C 0.93501 0.98808 0.62087 0.00000
C367 C 0.91278 0.04246 0.63323 0.00000
C368 C 0.95830 0.09294 0.63260 0.00000
C369 C 0.01886 0.07123 0.64095 0.00000
N370 N 0.04040 0.02077 0.62690 0.00000
H371 H 0.04241 0.03251 0.61206 0.00000
H372 H 0.09700 0.96811 0.64530 0.00000
H373 H 0.12112 0.03327 0.64223 0.00000
H374 H 0.99584 0.95480 0.64427 0.00000
H375 H 0.01117 0.93681 0.61878 0.00000
H376 H 0.93555 0.99591 0.60441 0.00000
H377 H 0.90759 0.95545 0.62360 0.00000
H378 H 0.90804 0.03123 0.64948 0.00000
H379 H 0.96190 0.10786 0.61694 0.00000
H380 H 0.94479 0.12537 0.64234 0.00000
H381 H 0.04738 0.10374 0.64008 0.00000
H382 H 0.01587 0.05898 0.65696 0.00000
C383 C 0.95712 0.08524 0.88594 0.00000
C384 C 0.01509 0.01421 0.86264 0.00000
C385 C 0.02552 0.94879 0.85666 0.00000
C386 C 0.03646 0.91057 0.87748 0.00000
C387 C 0.98891 0.92001 0.89594 0.00000
C388 C 0.98198 0.98601 0.90141 0.00000
N389 N 0.96652 0.02043 0.88055 0.00000
H390 H 0.93252 0.00560 0.87461 0.00000
H391 H 0.99412 0.10658 0.88332 0.00000
H392 H 0.94688 0.08932 0.90213 0.00000
H393 H 0.05170 0.03151 0.86849 0.00000
H394 H 0.00382 0.03583 0.84882 0.00000
H395 H 0.99099 0.93373 0.84845 0.00000
H396 H 0.05954 0.94590 0.84642 0.00000
H397 H 0.07433 0.92390 0.88418 0.00000
H398 H 0.95113 0.90421 0.89054 0.00000
H399 H 0.00010 0.89864 0.90983 0.00000
H400 H 0.95089 0.99112 0.91291 0.00000
H401 H 0.01890 0.00112 0.90784 0.00000
C402 C 0.93829 0.92169 0.13751 0.00000
C403 C 0.01094 0.98732 0.11838 0.00000
C404 C 0.05122 0.04175 0.12087 0.00000
C405 C 0.01878 0.09594 0.12938 0.00000
C406 C 0.98216 0.08248 0.15094 0.00000
C407 C 0.94208 0.02867 0.14700 0.00000
N408 N 0.97718 0.97565 0.14049 0.00000
H409 H 0.00378 0.96817 0.15176 0.00000
H410 H 0.92759 0.91791 0.12135 0.00000
H411 H 0.90185 0.92726 0.14627 0.00000
H412 H 0.98293 0.99380 0.10589 0.00000
H413 H 0.03491 0.95272 0.11456 0.00000
H414 H 0.08319 0.03233 0.13153 0.00000
H415 H 0.06902 0.05060 0.10602 0.00000
H416 H 0.99035 0.10701 0.11725 0.00000
H417 H 0.00873 0.07459 0.16380 0.00000
H418 H 0.95794 0.11684 0.15481 0.00000
H419 H 0.91988 0.02029 0.16103 0.00000
H420 H 0.91365 0.03762 0.13488 0.00000
C421 C 0.09778 0.00883 0.36026 0.00000
C422 C 0.99830 0.02813 0.37649 0.00000
C423 C 0.93906 0.00010 0.38400 0.00000
C424 C 0.91062 0.96341 0.36561 0.00000
C425 C 0.95425 0.91806 0.35565 0.00000
C426 C 0.01159 0.94854 0.34803 0.00000
N427 N 0.03987 0.98067 0.36736 0.00000
H428 H 0.04719 0.95450 0.37880 0.00000
H429 H 0.09041 0.04981 0.35575 0.00000
H430 H 0.11336 0.98781 0.34692 0.00000
H431 H 0.99124 0.05769 0.36459 0.00000
H432 H 0.01676 0.04800 0.38953 0.00000
H433 H 0.94568 0.97657 0.39760 0.00000
H434 H 0.91195 0.03271 0.38823 0.00000
H435 H 0.90004 0.99051 0.35298 0.00000
H436 H 0.96336 0.88818 0.36724 0.00000
H437 H 0.93612 0.89816 0.34256 0.00000
H438 H 0.03908 0.91882 0.34208 0.00000
H439 H 0.00286 0.97636 0.33567 0.00000
loop_
_geom_bond_atom_site_label_1
_geom_bond_atom_site_label_2
_geom_bond_distance
_geom_bond_site_symmetry_2
_ccdc_geom_bond_type
Cd0 Cd1 3.358 . S
Cd0 O2 2.045 . S
Cd0 O3 2.302 1_565 S
Cd0 O5 2.009 . S
Cd0 O6 2.014 . S
Cd0 O8 1.994 . S
Cd1 O4 1.935 . S
Cd1 O7 1.960 . S
Cd1 O9 1.947 . S
Cd1 O13 2.631 . S
Cd1 O14 1.963 . S
O2 C10 1.235 . A
O3 C10 1.258 1_545 A
O4 C11 1.252 . A
O5 C11 1.263 . A
O6 C12 1.228 . A
O7 C12 1.235 . A
O8 C16 1.231 . A
O9 C16 1.262 . A
O13 C15 1.242 . A
O14 C15 1.274 . A
Cd17 Cd18 3.358 . S
Cd17 O19 2.045 . S
Cd17 O20 2.302 1_455 S
Cd17 O22 2.009 . S
Cd17 O23 2.014 . S
Cd17 O25 1.994 . S
Cd18 O21 1.935 . S
Cd18 O24 1.960 . S
Cd18 O26 1.947 . S
Cd18 O30 2.631 . S
Cd18 O31 1.963 . S
O19 C27 1.235 . A
O20 C27 1.258 1_655 A
O21 C28 1.252 . A
O22 C28 1.263 . A
O23 C29 1.228 . A
O24 C29 1.235 . A
O25 C33 1.231 . A
O26 C33 1.262 . A
O30 C32 1.242 . A
O31 C32 1.274 . A
Cd34 Cd35 3.358 . S
Cd34 O36 2.045 . S
Cd34 O37 2.302 1_545 S
Cd34 O39 2.009 . S
Cd34 O40 2.014 . S
Cd34 O42 1.994 . S
Cd35 O38 1.935 . S
Cd35 O41 1.960 . S
Cd35 O43 1.947 . S
Cd35 O47 2.631 . S
Cd35 O48 1.963 . S
O36 C44 1.235 . A
O37 C44 1.258 1_565 A
O38 C45 1.252 . A
O39 C45 1.263 . A
O40 C46 1.228 . A
O41 C46 1.235 . A
O42 C50 1.231 . A
O43 C50 1.262 . A
O47 C49 1.242 . A
O48 C49 1.274 . A
Cd51 Cd52 3.358 . S
Cd51 O53 2.045 . S
Cd51 O54 2.302 1_655 S
Cd51 O56 2.009 . S
Cd51 O57 2.014 . S
Cd51 O59 1.994 . S
Cd52 O55 1.935 . S
Cd52 O58 1.960 . S
Cd52 O60 1.947 . S
Cd52 O64 2.631 . S
Cd52 O65 1.963 . S
O53 C61 1.235 . A
O54 C61 1.258 1_455 A
O55 C62 1.252 . A
O56 C62 1.263 . A
O57 C63 1.228 . A
O58 C63 1.235 . A
O59 C67 1.231 . A
O60 C67 1.262 . A
O64 C66 1.242 . A
O65 C66 1.274 . A
Cd68 Cd69 3.358 . S
Cd68 O70 2.045 . S
Cd68 O71 2.302 1_455 S
Cd68 O73 2.009 . S
Cd68 O74 2.014 . S
Cd68 O76 1.994 . S
Cd69 O72 1.935 . S
Cd69 O75 1.960 . S
Cd69 O77 1.947 . S
Cd69 O81 2.631 . S
Cd69 O82 1.963 . S
O70 C78 1.235 . A
O71 C78 1.258 1_655 A
O72 C79 1.252 . A
O73 C79 1.263 . A
O74 C80 1.228 . A
O75 C80 1.235 . A
O76 C84 1.231 . A
O77 C84 1.262 . A
O81 C83 1.242 . A
O82 C83 1.274 . A
Cd85 Cd86 3.358 . S
Cd85 O87 2.045 . S
Cd85 O88 2.302 1_545 S
Cd85 O90 2.009 . S
Cd85 O91 2.014 . S
Cd85 O93 1.994 . S
Cd86 O89 1.935 . S
Cd86 O92 1.960 . S
Cd86 O94 1.947 . S
Cd86 O98 2.631 . S
Cd86 O99 1.963 . S
O87 C95 1.235 . A
O88 C95 1.258 1_565 A
O89 C96 1.252 . A
O90 C96 1.263 . A
O91 C97 1.228 . A
O92 C97 1.235 . A
O93 C101 1.231 . A
O94 C101 1.262 . A
O98 C100 1.242 . A
O99 C100 1.274 . A
Cd102 Cd103 3.358 . S
Cd102 O104 2.045 . S
Cd102 O105 2.302 1_655 S
Cd102 O107 2.009 . S
Cd102 O108 2.014 . S
Cd102 O110 1.994 . S
Cd103 O106 1.935 . S
Cd103 O109 1.960 . S
Cd103 O111 1.947 . S
Cd103 O115 2.631 . S
Cd103 O116 1.963 . S
O104 C112 1.235 . A
O105 C112 1.258 1_455 A
O106 C113 1.252 . A
O107 C113 1.263 . A
O108 C114 1.228 . A
O109 C114 1.235 . A
O110 C118 1.231 . A
O111 C118 1.262 . A
O115 C117 1.242 . A
O116 C117 1.274 . A
Cd119 Cd120 3.358 . S
Cd119 O121 2.045 . S
Cd119 O122 2.302 1_565 S
Cd119 O124 2.009 . S
Cd119 O125 2.014 . S
Cd119 O127 1.994 . S
Cd120 O123 1.935 . S
Cd120 O126 1.960 . S
Cd120 O128 1.947 . S
Cd120 O132 2.631 . S
Cd120 O133 1.963 . S
O121 C129 1.235 . A
O122 C129 1.258 1_545 A
O123 C130 1.252 . A
O124 C130 1.263 . A
O125 C131 1.228 . A
O126 C131 1.235 . A
O127 C135 1.231 . A
O128 C135 1.262 . A
O132 C134 1.242 . A
O133 C134 1.274 . A
C136 N142 1.502 . S
C136 H144 0.970 . S
C136 H145 0.970 . S
C137 C138 1.526 . S
C137 N142 1.511 1_545 S
C137 H146 0.970 . S
C137 H147 0.970 . S
C138 C139 1.500 . S
C138 H148 0.970 . S
C138 H149 0.969 . S
C139 C140 1.525 1_545 S
C139 H150 0.981 . S
C140 C141 1.522 . S
C140 H151 0.970 . S
C140 H152 0.970 . S
C141 N142 1.476 . S
C141 H153 0.971 . S
C141 H154 0.970 . S
N142 H143 0.900 . S
C155 N161 1.502 . S
C155 H163 0.970 1_655 S
C155 H164 0.970 . S
C156 C157 1.526 . S
C156 N161 1.511 1_455 S
C156 H165 0.970 . S
C156 H166 0.970 1_455 S
C157 C158 1.500 . S
C157 H167 0.970 1_455 S
C157 H168 0.969 . S
C158 C159 1.525 . S
C158 H169 0.981 . S
C159 C160 1.522 . S
C159 H170 0.970 1_455 S
C159 H171 0.970 . S
C160 N161 1.476 1_455 S
C160 H172 0.971 1_455 S
C160 H173 0.970 . S
N161 H162 0.900 . S
C174 N180 1.502 1_455 S
C174 H182 0.970 . S
C174 H183 0.970 . S
C175 C176 1.526 1_455 S
C175 N180 1.511 1_455 S
C175 H184 0.970 . S
C175 H185 0.970 . S
C176 C177 1.500 . S
C176 H186 0.970 . S
C176 H187 0.969 1_655 S
C177 C178 1.525 . S
C177 H188 0.981 1_655 S
C178 C179 1.522 . S
C178 H189 0.970 . S
C178 H190 0.970 . S
C179 N180 1.476 . S
C179 H191 0.971 . S
C179 H192 0.970 1_655 S
N180 H181 0.900 . S
C193 N199 1.502 . S
C193 H201 0.970 . S
C193 H202 0.970 . S
C194 C195 1.526 . S
C194 N199 1.511 1_545 S
C194 H203 0.970 . S
C194 H204 0.970 . S
C195 C196 1.500 . S
C195 H205 0.970 . S
C195 H206 0.969 . S
C196 C197 1.525 1_545 S
C196 H207 0.981 . S
C197 C198 1.522 . S
C197 H208 0.970 . S
C197 H209 0.970 . S
C198 N199 1.476 . S
C198 H210 0.971 . S
C198 H211 0.970 . S
N199 H200 0.900 . S
C212 N218 1.502 . S
C212 H220 0.970 1_565 S
C212 H221 0.970 . S
C213 C214 1.526 . S
C213 N218 1.511 1_545 S
C213 H222 0.970 . S
C213 H223 0.970 . S
C214 C215 1.500 . S
C214 H224 0.970 1_545 S
C214 H225 0.969 . S
C215 C216 1.525 1_545 S
C215 H226 0.981 . S
C216 C217 1.522 . S
C216 H227 0.970 . S
C216 H228 0.970 . S
C217 N218 1.476 . S
C217 H229 0.971 . S
C217 H230 0.970 . S
N218 H219 0.900 . S
C231 N237 1.502 . S
C231 H239 0.970 . S
C231 H240 0.970 . S
C232 C233 1.526 1_556 S
C232 N237 1.511 1_655 S
C232 H241 0.970 . S
C232 H242 0.970 . S
C233 C234 1.500 1_655 S
C233 H243 0.970 . S
C233 H244 0.969 . S
C234 C235 1.525 . S
C234 H245 0.981 . S
C235 C236 1.522 . S
C235 H246 0.970 . S
C235 H247 0.970 . S
C236 N237 1.476 1_554 S
C236 H248 0.971 1_554 S
C236 H249 0.971 . S
N237 H238 0.900 . S
C250 N256 1.502 . S
C250 H258 0.970 1_545 S
C250 H259 0.970 . S
C251 C252 1.526 . S
C251 N256 1.511 1_565 S
C251 H260 0.970 . S
C251 H261 0.970 . S
C252 C253 1.500 . S
C252 H262 0.970 1_565 S
C252 H263 0.969 . S
C253 C254 1.525 1_565 S
C253 H264 0.981 . S
C254 C255 1.522 . S
C254 H265 0.970 . S
C254 H266 0.970 . S
C255 N256 1.476 . S
C255 H267 0.971 . S
C255 H268 0.970 1_545 S
N256 H257 0.900 . S
C269 N275 1.502 . S
C269 H277 0.970 . S
C269 H278 0.970 . S
C270 C271 1.526 1_554 S
C270 N275 1.511 1_455 S
C270 H279 0.970 . S
C270 H280 0.970 . S
C271 C272 1.500 1_455 S
C271 H281 0.970 . S
C271 H282 0.969 . S
C272 C273 1.525 . S
C272 H283 0.981 . S
C273 C274 1.522 . S
C273 H284 0.970 . S
C273 H285 0.970 . S
C274 N275 1.476 1_556 S
C274 H286 0.971 1_556 S
C274 H287 0.970 . S
N275 H276 0.900 . S
C288 N294 1.502 . S
C288 H296 0.970 . S
C288 H297 0.970 . S
C289 C290 1.526 . S
C289 N294 1.511 . S
C289 H298 0.970 . S
C289 H299 0.970 . S
C290 C291 1.500 . S
C290 H300 0.970 . S
C290 H301 0.969 . S
C291 C292 1.525 . S
C291 H302 0.981 . S
C292 C293 1.522 . S
C292 H303 0.970 . S
C292 H304 0.970 . S
C293 N294 1.476 . S
C293 H305 0.971 . S
C293 H306 0.970 . S
N294 H295 0.900 . S
C307 N313 1.502 . S
C307 H315 0.970 . S
C307 H316 0.970 . S
C308 C309 1.526 . S
C308 N313 1.511 . S
C308 H317 0.970 . S
C308 H318 0.970 . S
C309 C310 1.500 . S
C309 H319 0.970 . S
C309 H320 0.969 . S
C310 C311 1.525 . S
C310 H321 0.981 . S
C311 C312 1.522 . S
C311 H322 0.970 . S
C311 H323 0.970 . S
C312 N313 1.476 . S
C312 H324 0.971 . S
C312 H325 0.970 . S
N313 H314 0.900 . S
C326 N332 1.502 . S
C326 H334 0.970 . S
C326 H335 0.970 . S
C327 C328 1.526 . S
C327 N332 1.511 . S
C327 H336 0.970 . S
C327 H337 0.970 . S
C328 C329 1.500 . S
C328 H338 0.970 . S
C328 H339 0.969 . S
C329 C330 1.525 . S
C329 H340 0.981 . S
C330 C331 1.522 . S
C330 H341 0.970 . S
C330 H342 0.970 . S
C331 N332 1.476 . S
C331 H343 0.971 . S
C331 H344 0.970 . S
N332 H333 0.900 . S
C345 N351 1.502 . S
C345 H353 0.970 . S
C345 H354 0.970 . S
C346 C347 1.526 . S
C346 N351 1.511 . S
C346 H355 0.970 . S
C346 H356 0.970 . S
C347 C348 1.500 . S
C347 H357 0.970 . S
C347 H358 0.969 . S
C348 C349 1.525 . S
C348 H359 0.981 . S
C349 C350 1.522 . S
C349 H360 0.970 . S
C349 H361 0.970 . S
C350 N351 1.476 . S
C350 H362 0.971 . S
C350 H363 0.970 . S
N351 H352 0.900 . S
C364 N370 1.506 . S
C364 H372 0.961 1_545 S
C364 H373 0.979 . S
C365 C366 1.526 . S
C365 N370 1.511 1_665 S
C365 H374 0.970 . S
C365 H375 0.970 1_655 S
C366 C367 1.500 1_565 S
C366 H376 0.970 . S
C366 H377 0.969 . S
C367 C368 1.525 . S
C367 H378 0.981 . S
C368 C369 1.522 1_655 S
C368 H379 0.970 . S
C368 H380 0.970 . S
C369 N370 1.476 . S
C369 H381 0.971 . S
C369 H382 0.970 . S
N370 H371 0.900 . S
C383 N389 1.502 . S
C383 H391 0.970 . S
C383 H392 0.970 . S
C384 C385 1.526 1_545 S
C384 N389 1.511 1_455 S
C384 H393 0.970 . S
C384 H394 0.970 . S
C385 C386 1.500 . S
C385 H395 0.970 1_455 S
C385 H396 0.969 . S
C386 C387 1.525 1_455 S
C386 H397 0.981 . S
C387 C388 1.522 . S
C387 H398 0.970 . S
C387 H399 0.970 1_655 S
C388 N389 1.476 1_565 S
C388 H400 0.971 . S
C388 H401 0.970 1_665 S
N389 H390 0.900 . S
C402 N408 1.502 . S
C402 H410 0.970 . S
C402 H411 0.970 . S
C403 C404 1.526 1_565 S
C403 N408 1.511 1_455 S
C403 H412 0.970 1_455 S
C403 H413 0.970 . S
C404 C405 1.500 . S
C404 H414 0.970 . S
C404 H415 0.969 . S
C405 C406 1.525 1_455 S
C405 H416 0.981 1_455 S
C406 C407 1.522 . S
C406 H417 0.970 1_655 S
C406 H418 0.970 . S
C407 N408 1.476 1_545 S
C407 H419 0.971 . S
C407 H420 0.970 . S
N408 H409 0.900 1_655 S
C421 N427 1.502 1_545 S
C421 H429 0.970 . S
C421 H430 0.970 1_545 S
C422 C423 1.533 . S
C422 N427 1.511 1_645 S
C422 H431 0.970 . S
C422 H432 0.970 1_655 S
C423 C424 1.490 1_545 S
C423 H433 0.960 1_545 S
C423 H434 0.983 . S
C424 C425 1.525 . S
C424 H435 0.981 . S
C425 C426 1.522 1_655 S
C425 H436 0.970 . S
C425 H437 0.970 . S
C426 N427 1.476 . S
C426 H438 0.971 . S
C426 H439 0.970 . S
N427 H428 0.900 . S
C136 C16 1.688 . S
C139 C50 1.443 . S
C155 C118 1.687 . S
C158 C33 1.444 . S
C174 C84 1.663 . S
C177 C67 1.431 . S
C193 C135 1.688 . S
C196 C101 1.442 . S
C212 C95 1.871 1_565 S
C215 C10 1.506 1_545 S
C231 C27 1.504 . S
C234 C61 1.579 1_455 S
C250 C129 1.804 1_545 S
C253 C44 1.543 1_565 S
C269 C78 1.929 1_655 S
C272 C112 1.421 . S
C288 C15 1.891 . S
C291 C32 1.365 . S
C307 C49 1.844 . S
C310 C117 1.411 . S
C326 C66 1.532 . S
C329 C134 1.551 . S
C345 C83 1.895 . S
C348 C100 1.367 . S
C364 C12 1.637 1_545 S
C367 C46 1.505 . S
C383 C114 1.597 . S
C386 C29 1.401 . S
C402 C63 1.805 . S
C405 C80 1.411 . S
C421 C97 1.705 . S
C424 C131 1.500 . S
