# Generated by pormake.
# Topology umh, (4)-cn, num edge types: 1
# Building blocks:
#     Node 0, Type 0, BuildingBlock: N364, # of connection points: 5
#     Node 1, Type 0, BuildingBlock: N364, # of connection points: 5
#     Node 2, Type 0, BuildingBlock: N364, # of connection points: 5
#     Node 3, Type 0, BuildingBlock: N364, # of connection points: 5
#     Node 4, Type 0, BuildingBlock: N364, # of connection points: 5
#     Node 5, Type 0, BuildingBlock: N364, # of connection points: 5
#     Node 6, Type 0, BuildingBlock: N364, # of connection points: 5
#     Node 7, Type 0, BuildingBlock: N364, # of connection points: 5
#     Node 8, Type 0, BuildingBlock: N364, # of connection points: 5
#     Node 9, Type 0, BuildingBlock: N364, # of connection points: 5
#     Node 10, Type 0, BuildingBlock: N364, # of connection points: 5
#     Node 11, Type 0, BuildingBlock: N364, # of connection points: 5
#     Node 12, Type 0, BuildingBlock: N364, # of connection points: 5
#     Node 13, Type 0, BuildingBlock: N364, # of connection points: 5
#     Node 14, Type 0, BuildingBlock: N364, # of connection points: 5
#     Node 15, Type 0, BuildingBlock: N364, # of connection points: 5
#     Edge 16, Type (0, 0), BuildingBlock: E19, # of connection points: 2
#     Edge 17, Type (0, 0), BuildingBlock: E19, # of connection points: 2
#     Edge 18, Type (0, 0), BuildingBlock: E19, # of connection points: 2
#     Edge 19, Type (0, 0), BuildingBlock: E19, # of connection points: 2
#     Edge 20, Type (0, 0), BuildingBlock: E19, # of connection points: 2
#     Edge 21, Type (0, 0), BuildingBlock: E19, # of connection points: 2
#     Edge 22, Type (0, 0), BuildingBlock: E19, # of connection points: 2
#     Edge 23, Type (0, 0), BuildingBlock: E19, # of connection points: 2
#     Edge 24, Type (0, 0), BuildingBlock: E19, # of connection points: 2
#     Edge 25, Type (0, 0), BuildingBlock: E19, # of connection points: 2
#     Edge 26, Type (0, 0), BuildingBlock: E19, # of connection points: 2
#     Edge 27, Type (0, 0), BuildingBlock: E19, # of connection points: 2
#     Edge 28, Type (0, 0), BuildingBlock: E19, # of connection points: 2
#     Edge 29, Type (0, 0), BuildingBlock: E19, # of connection points: 2
#     Edge 30, Type (0, 0), BuildingBlock: E19, # of connection points: 2
#     Edge 31, Type (0, 0), BuildingBlock: E19, # of connection points: 2
#     Edge 32, Type (0, 0), BuildingBlock: E19, # of connection points: 2
#     Edge 33, Type (0, 0), BuildingBlock: E19, # of connection points: 2
#     Edge 34, Type (0, 0), BuildingBlock: E19, # of connection points: 2
#     Edge 35, Type (0, 0), BuildingBlock: E19, # of connection points: 2
#     Edge 36, Type (0, 0), BuildingBlock: E19, # of connection points: 2
#     Edge 37, Type (0, 0), BuildingBlock: E19, # of connection points: 2
#     Edge 38, Type (0, 0), BuildingBlock: E19, # of connection points: 2
#     Edge 39, Type (0, 0), BuildingBlock: E19, # of connection points: 2
#     Edge 40, Type (0, 0), BuildingBlock: E19, # of connection points: 2
#     Edge 41, Type (0, 0), BuildingBlock: E19, # of connection points: 2
#     Edge 42, Type (0, 0), BuildingBlock: E19, # of connection points: 2
#     Edge 43, Type (0, 0), BuildingBlock: E19, # of connection points: 2
#     Edge 44, Type (0, 0), BuildingBlock: E19, # of connection points: 2
#     Edge 45, Type (0, 0), BuildingBlock: E19, # of connection points: 2
#     Edge 46, Type (0, 0), BuildingBlock: E19, # of connection points: 2
#     Edge 47, Type (0, 0), BuildingBlock: E19, # of connection points: 2
# Relax obj value: 0.249
# Max RMSD: 0.337
# Mean RMSD: 0.337
data_umh+N364+E19
_symmetry_space_group_name_H-M    P1
_symmetry_Int_Tables_number       1
_symmetry_cell_setting            triclinic
loop_
_symmetry_equiv_pos_as_xyz
'x, y, z'
_cell_length_a     27.355
_cell_length_b     27.355
_cell_length_c     39.186
_cell_angle_alpha  89.999
_cell_angle_beta   90.001
_cell_angle_gamma  90.000
loop_
_atom_site_label
_atom_site_type_symbol
_atom_site_fract_x
_atom_site_fract_y
_atom_site_fract_z
_atom_type_partial_charge
C0 C 0.82666 0.71208 0.80709 0.00000
Cd1 Cd 0.95958 0.61593 0.83360 0.00000
C2 C 0.95205 0.53078 0.79479 0.00000
C3 C 0.85898 0.62293 0.78878 0.00000
C4 C 0.87105 0.69337 0.81884 0.00000
C5 C 0.88845 0.56598 0.88791 0.00000
C6 C 0.86087 0.55836 0.91775 0.00000
C7 C 0.86151 0.59050 0.94378 0.00000
C8 C 0.88620 0.63215 0.93684 0.00000
C9 C 0.91076 0.63797 0.90686 0.00000
H10 H 0.81629 0.74284 0.81418 0.00000
N11 N 0.88721 0.64922 0.81015 0.00000
N12 N 0.91501 0.60512 0.88353 0.00000
O13 O 0.97432 0.70653 0.85635 0.00000
O14 O 0.00550 0.67515 0.80965 0.00000
H15 H 0.86985 0.59192 0.78268 0.00000
H16 H 0.89007 0.71252 0.83324 0.00000
H17 H 0.88779 0.54238 0.87087 0.00000
H18 H 0.84162 0.53044 0.91948 0.00000
H19 H 0.88638 0.65730 0.95280 0.00000
H20 H 0.92562 0.66799 0.90296 0.00000
C21 C 0.99824 0.71026 0.82972 0.00000
O22 O 0.93046 0.52757 0.82221 0.00000
O23 O 0.97469 0.56777 0.78592 0.00000
C24 C 0.79786 0.68496 0.78495 0.00000
C25 C 0.81492 0.63869 0.77536 0.00000
C26 C 0.78792 0.82668 0.30709 0.00000
Cd27 Cd 0.88408 0.95959 0.33360 0.00000
C28 C 0.96923 0.95205 0.29478 0.00000
C29 C 0.87707 0.85899 0.28878 0.00000
C30 C 0.80663 0.87107 0.31884 0.00000
C31 C 0.93403 0.88846 0.38790 0.00000
C32 C 0.94164 0.86088 0.41774 0.00000
C33 C 0.90951 0.86152 0.44378 0.00000
C34 C 0.86786 0.88621 0.43684 0.00000
C35 C 0.86205 0.91077 0.40685 0.00000
H36 H 0.75716 0.81631 0.31418 0.00000
N37 N 0.85079 0.88722 0.31015 0.00000
N38 N 0.89489 0.91501 0.38353 0.00000
O39 O 0.79349 0.97434 0.35634 0.00000
O40 O 0.82487 0.00551 0.30964 0.00000
H41 H 0.90809 0.86986 0.28267 0.00000
H42 H 0.78749 0.89009 0.33323 0.00000
H43 H 0.95763 0.88779 0.37087 0.00000
H44 H 0.96956 0.84162 0.41947 0.00000
H45 H 0.84271 0.88640 0.45280 0.00000
H46 H 0.83202 0.92564 0.40296 0.00000
C47 C 0.78976 0.99826 0.32971 0.00000
O48 O 0.97244 0.93046 0.32220 0.00000
O49 O 0.93225 0.97470 0.28591 0.00000
C50 C 0.81503 0.79787 0.28495 0.00000
C51 C 0.86131 0.81493 0.27536 0.00000
C52 C 0.67340 0.71203 0.69291 0.00000
Cd53 Cd 0.54046 0.61590 0.66641 0.00000
C54 C 0.54798 0.53075 0.70523 0.00000
C55 C 0.64107 0.62288 0.71123 0.00000
C56 C 0.62900 0.69332 0.68116 0.00000
C57 C 0.61157 0.56593 0.61210 0.00000
C58 C 0.63915 0.55831 0.58226 0.00000
C59 C 0.63851 0.59045 0.55622 0.00000
C60 C 0.61383 0.63210 0.56316 0.00000
C61 C 0.58928 0.63792 0.59315 0.00000
H62 H 0.68377 0.74278 0.68582 0.00000
N63 N 0.61283 0.64917 0.68985 0.00000
N64 N 0.58503 0.60508 0.61648 0.00000
O65 O 0.52573 0.70649 0.64366 0.00000
O66 O 0.49455 0.67512 0.69036 0.00000
H67 H 0.63019 0.59187 0.71733 0.00000
H68 H 0.60998 0.71247 0.66677 0.00000
H69 H 0.61224 0.54234 0.62914 0.00000
H70 H 0.65840 0.53039 0.58053 0.00000
H71 H 0.61365 0.65725 0.54720 0.00000
H72 H 0.57442 0.66795 0.59705 0.00000
C73 C 0.50181 0.71023 0.67029 0.00000
O74 O 0.56956 0.52753 0.67781 0.00000
O75 O 0.52534 0.56774 0.71409 0.00000
C76 C 0.70220 0.68490 0.71505 0.00000
C77 C 0.68513 0.63863 0.72464 0.00000
C78 C 0.21199 0.17343 0.69291 0.00000
Cd79 Cd 0.11587 0.04048 0.66640 0.00000
C80 C 0.03071 0.04801 0.70522 0.00000
C81 C 0.12284 0.14110 0.71122 0.00000
C82 C 0.19329 0.12903 0.68116 0.00000
C83 C 0.06590 0.11160 0.61209 0.00000
C84 C 0.05829 0.13917 0.58225 0.00000
C85 C 0.09043 0.13853 0.55621 0.00000
C86 C 0.13208 0.11386 0.56316 0.00000
C87 C 0.13790 0.08931 0.59315 0.00000
H88 H 0.24274 0.18380 0.68582 0.00000
N89 N 0.14914 0.11286 0.68985 0.00000
N90 N 0.10505 0.08505 0.61647 0.00000
O91 O 0.20646 0.02576 0.64366 0.00000
O92 O 0.17509 0.99458 0.69037 0.00000
H93 H 0.09183 0.13021 0.71732 0.00000
H94 H 0.21244 0.11001 0.66677 0.00000
H95 H 0.04231 0.11226 0.62912 0.00000
H96 H 0.03036 0.15842 0.58051 0.00000
H97 H 0.15723 0.11368 0.54720 0.00000
H98 H 0.16793 0.07444 0.59705 0.00000
C99 C 0.21020 0.00184 0.67029 0.00000
O100 O 0.02750 0.06959 0.67780 0.00000
O101 O 0.06770 0.02537 0.71409 0.00000
C102 C 0.18486 0.20223 0.71504 0.00000
C103 C 0.13859 0.18516 0.72464 0.00000
C104 C 0.32671 0.28788 0.30709 0.00000
Cd105 Cd 0.45962 0.38404 0.33360 0.00000
C106 C 0.45208 0.46919 0.29478 0.00000
C107 C 0.35902 0.37703 0.28878 0.00000
C108 C 0.37110 0.30659 0.31884 0.00000
C109 C 0.38848 0.43400 0.38790 0.00000
C110 C 0.36090 0.44161 0.41774 0.00000
C111 C 0.36154 0.40948 0.44378 0.00000
C112 C 0.38623 0.36783 0.43684 0.00000
C113 C 0.41079 0.36202 0.40685 0.00000
H114 H 0.31634 0.25712 0.31419 0.00000
N115 N 0.38726 0.35075 0.31015 0.00000
N116 N 0.41504 0.39486 0.38353 0.00000
O117 O 0.47437 0.29346 0.35636 0.00000
O118 O 0.50555 0.32483 0.30965 0.00000
H119 H 0.36989 0.40805 0.28267 0.00000
H120 H 0.39012 0.28745 0.33324 0.00000
H121 H 0.38781 0.45759 0.37086 0.00000
H122 H 0.34164 0.46953 0.41946 0.00000
H123 H 0.38642 0.34269 0.45280 0.00000
H124 H 0.42566 0.33199 0.40296 0.00000
C125 C 0.49829 0.28972 0.32973 0.00000
O126 O 0.43049 0.47240 0.32219 0.00000
O127 O 0.47473 0.43220 0.28591 0.00000
C128 C 0.29791 0.31499 0.28495 0.00000
C129 C 0.31496 0.36127 0.27535 0.00000
C130 C 0.28789 0.32671 0.69291 0.00000
Cd131 Cd 0.38405 0.45962 0.66640 0.00000
C132 C 0.46920 0.45208 0.70523 0.00000
C133 C 0.37704 0.35902 0.71123 0.00000
C134 C 0.30660 0.37109 0.68116 0.00000
C135 C 0.43401 0.38848 0.61210 0.00000
C136 C 0.44163 0.36089 0.58227 0.00000
C137 C 0.40949 0.36154 0.55622 0.00000
C138 C 0.36784 0.38623 0.56316 0.00000
C139 C 0.36203 0.41079 0.59315 0.00000
H140 H 0.25713 0.31634 0.68581 0.00000
N141 N 0.35076 0.38725 0.68985 0.00000
N142 N 0.39487 0.41504 0.61647 0.00000
O143 O 0.29347 0.47436 0.64364 0.00000
O144 O 0.32484 0.50554 0.69035 0.00000
H145 H 0.40805 0.36989 0.71733 0.00000
H146 H 0.28746 0.39012 0.66676 0.00000
H147 H 0.45760 0.38781 0.62914 0.00000
H148 H 0.46955 0.34164 0.58054 0.00000
H149 H 0.34270 0.38641 0.54720 0.00000
H150 H 0.33200 0.42566 0.59704 0.00000
C151 C 0.28973 0.49829 0.67027 0.00000
O152 O 0.47241 0.43049 0.67781 0.00000
O153 O 0.43221 0.47473 0.71409 0.00000
C154 C 0.31500 0.29790 0.71505 0.00000
C155 C 0.36128 0.31496 0.72465 0.00000
C156 C 0.17336 0.28792 0.19292 0.00000
Cd157 Cd 0.04043 0.38407 0.16642 0.00000
C158 C 0.04797 0.46922 0.20524 0.00000
C159 C 0.14104 0.37707 0.21123 0.00000
C160 C 0.12897 0.30663 0.18117 0.00000
C161 C 0.11155 0.43403 0.11211 0.00000
C162 C 0.13913 0.44165 0.08227 0.00000
C163 C 0.13848 0.40951 0.05623 0.00000
C164 C 0.11380 0.36786 0.06317 0.00000
C165 C 0.08924 0.36205 0.09316 0.00000
H166 H 0.18373 0.25716 0.18582 0.00000
N167 N 0.11281 0.35078 0.18986 0.00000
N168 N 0.08500 0.39489 0.11649 0.00000
O169 O 0.02569 0.29348 0.14367 0.00000
O170 O 0.99452 0.32486 0.19038 0.00000
H171 H 0.13017 0.40808 0.21734 0.00000
H172 H 0.10994 0.28749 0.16677 0.00000
H173 H 0.11222 0.45762 0.12914 0.00000
H174 H 0.15838 0.46957 0.08054 0.00000
H175 H 0.11361 0.34271 0.04721 0.00000
H176 H 0.07438 0.33202 0.09706 0.00000
C177 C 0.00177 0.28974 0.17030 0.00000
O178 O 0.06955 0.47243 0.17782 0.00000
O179 O 0.02533 0.43223 0.21411 0.00000
C180 C 0.20216 0.31504 0.21505 0.00000
C181 C 0.18510 0.36131 0.22465 0.00000
C182 C 0.32665 0.21203 0.19290 0.00000
Cd183 Cd 0.45958 0.11589 0.16638 0.00000
C184 C 0.45205 0.03074 0.20520 0.00000
C185 C 0.35897 0.12288 0.21121 0.00000
C186 C 0.37104 0.19333 0.18115 0.00000
C187 C 0.38845 0.06594 0.11208 0.00000
C188 C 0.36087 0.05832 0.08224 0.00000
C189 C 0.36150 0.09046 0.05620 0.00000
C190 C 0.38618 0.13211 0.06315 0.00000
C191 C 0.41074 0.13792 0.09313 0.00000
H192 H 0.31627 0.24279 0.18581 0.00000
N193 N 0.38720 0.14917 0.18984 0.00000
N194 N 0.41500 0.10508 0.11646 0.00000
O195 O 0.47430 0.20649 0.14364 0.00000
O196 O 0.50549 0.17511 0.19034 0.00000
H197 H 0.36985 0.09187 0.21731 0.00000
H198 H 0.39006 0.21247 0.16675 0.00000
H199 H 0.38778 0.04234 0.12911 0.00000
H200 H 0.34161 0.03040 0.08051 0.00000
H201 H 0.38637 0.15726 0.04718 0.00000
H202 H 0.42561 0.16795 0.09703 0.00000
C203 C 0.49823 0.21023 0.17026 0.00000
O204 O 0.43047 0.02753 0.17778 0.00000
O205 O 0.47470 0.06773 0.21407 0.00000
C206 C 0.29785 0.18491 0.21503 0.00000
C207 C 0.31492 0.13863 0.22463 0.00000
C208 C 0.21201 0.32663 0.80710 0.00000
Cd209 Cd 0.11588 0.45956 0.83361 0.00000
C210 C 0.03073 0.45204 0.79479 0.00000
C211 C 0.12287 0.35896 0.78879 0.00000
C212 C 0.19331 0.37102 0.81885 0.00000
C213 C 0.06592 0.38843 0.88792 0.00000
C214 C 0.05830 0.36085 0.91775 0.00000
C215 C 0.09044 0.36149 0.94379 0.00000
C216 C 0.13209 0.38617 0.93685 0.00000
C217 C 0.13791 0.41073 0.90687 0.00000
H218 H 0.24277 0.31625 0.81419 0.00000
N219 N 0.14916 0.38719 0.81016 0.00000
N220 N 0.10507 0.41498 0.88354 0.00000
O221 O 0.20647 0.47428 0.85636 0.00000
O222 O 0.17510 0.50547 0.80966 0.00000
H223 H 0.09185 0.36984 0.78269 0.00000
H224 H 0.21246 0.39004 0.83325 0.00000
H225 H 0.04232 0.38777 0.87088 0.00000
H226 H 0.03038 0.34160 0.91948 0.00000
H227 H 0.15724 0.38635 0.95281 0.00000
H228 H 0.16794 0.42559 0.90297 0.00000
C229 C 0.21022 0.49821 0.82974 0.00000
O230 O 0.02752 0.43045 0.82221 0.00000
O231 O 0.06772 0.47469 0.78593 0.00000
C232 C 0.18489 0.29783 0.78496 0.00000
C233 C 0.13862 0.31490 0.77537 0.00000
C234 C 0.17342 0.21199 0.30709 0.00000
Cd235 Cd 0.04048 0.11587 0.33359 0.00000
C236 C 0.04800 0.03071 0.29478 0.00000
C237 C 0.14109 0.12284 0.28878 0.00000
C238 C 0.12903 0.19329 0.31883 0.00000
C239 C 0.11159 0.06590 0.38791 0.00000
C240 C 0.13917 0.05829 0.41775 0.00000
C241 C 0.13853 0.09043 0.44378 0.00000
C242 C 0.11385 0.13208 0.43684 0.00000
C243 C 0.08930 0.13789 0.40685 0.00000
H244 H 0.18380 0.24274 0.31418 0.00000
N245 N 0.11286 0.14914 0.31015 0.00000
N246 N 0.08505 0.10505 0.38353 0.00000
O247 O 0.02576 0.20646 0.35633 0.00000
O248 O 0.99458 0.17508 0.30963 0.00000
H249 H 0.13021 0.09183 0.28268 0.00000
H250 H 0.11001 0.21243 0.33323 0.00000
H251 H 0.11226 0.04231 0.37087 0.00000
H252 H 0.15842 0.03036 0.41948 0.00000
H253 H 0.11367 0.15723 0.45280 0.00000
H254 H 0.07444 0.16793 0.40295 0.00000
C255 C 0.00184 0.21020 0.32970 0.00000
O256 O 0.06959 0.02750 0.32220 0.00000
O257 O 0.02537 0.06770 0.28591 0.00000
C258 C 0.20223 0.18486 0.28496 0.00000
C259 C 0.18516 0.13859 0.27536 0.00000
C260 C 0.28792 0.17335 0.80709 0.00000
Cd261 Cd 0.38408 0.04043 0.83359 0.00000
C262 C 0.46923 0.04798 0.79477 0.00000
C263 C 0.37707 0.14104 0.78877 0.00000
C264 C 0.30663 0.12896 0.81883 0.00000
C265 C 0.43404 0.11155 0.88790 0.00000
C266 C 0.44165 0.13913 0.91774 0.00000
C267 C 0.40952 0.13849 0.94378 0.00000
C268 C 0.36787 0.11380 0.93683 0.00000
C269 C 0.36205 0.08925 0.90685 0.00000
H270 H 0.25717 0.18372 0.81418 0.00000
N271 N 0.35079 0.11281 0.81014 0.00000
N272 N 0.39489 0.08500 0.88352 0.00000
O273 O 0.29349 0.02569 0.85634 0.00000
O274 O 0.32486 0.99452 0.80963 0.00000
H275 H 0.40809 0.13017 0.78267 0.00000
H276 H 0.28749 0.10994 0.83323 0.00000
H277 H 0.45763 0.11223 0.87086 0.00000
H278 H 0.46957 0.15839 0.91947 0.00000
H279 H 0.34272 0.11361 0.95280 0.00000
H280 H 0.33202 0.07438 0.90295 0.00000
C281 C 0.28975 0.00177 0.82971 0.00000
O282 O 0.47244 0.06956 0.82219 0.00000
O283 O 0.43224 0.02533 0.78590 0.00000
C284 C 0.31504 0.20216 0.78495 0.00000
C285 C 0.36131 0.18510 0.77536 0.00000
C286 C 0.67337 0.78797 0.80708 0.00000
Cd287 Cd 0.54044 0.88411 0.83358 0.00000
C288 C 0.54797 0.96926 0.79476 0.00000
C289 C 0.64105 0.87712 0.78876 0.00000
C290 C 0.62898 0.80668 0.81882 0.00000
C291 C 0.61156 0.93407 0.88789 0.00000
C292 C 0.63914 0.94169 0.91773 0.00000
C293 C 0.63850 0.90955 0.94377 0.00000
C294 C 0.61382 0.86790 0.93682 0.00000
C295 C 0.58926 0.86209 0.90684 0.00000
H296 H 0.68374 0.75722 0.81417 0.00000
N297 N 0.61281 0.85083 0.81013 0.00000
N298 N 0.58501 0.89493 0.88351 0.00000
O299 O 0.52571 0.79352 0.85633 0.00000
O300 O 0.49453 0.82489 0.80962 0.00000
H301 H 0.63017 0.90813 0.78266 0.00000
H302 H 0.60995 0.78753 0.83322 0.00000
H303 H 0.61223 0.95767 0.87085 0.00000
H304 H 0.65839 0.96961 0.91946 0.00000
H305 H 0.61363 0.84275 0.95279 0.00000
H306 H 0.57440 0.83206 0.90294 0.00000
C307 C 0.50179 0.78978 0.82970 0.00000
O308 O 0.56955 0.97247 0.82218 0.00000
O309 O 0.52532 0.93227 0.78589 0.00000
C310 C 0.70217 0.81509 0.78494 0.00000
C311 C 0.68511 0.86137 0.77535 0.00000
C312 C 0.71201 0.67340 0.30709 0.00000
Cd313 Cd 0.61589 0.54046 0.33360 0.00000
C314 C 0.53073 0.54798 0.29478 0.00000
C315 C 0.62286 0.64107 0.28878 0.00000
C316 C 0.69331 0.62901 0.31884 0.00000
C317 C 0.56592 0.61158 0.38790 0.00000
C318 C 0.55830 0.63916 0.41774 0.00000
C319 C 0.59043 0.63852 0.44378 0.00000
C320 C 0.63209 0.61384 0.43684 0.00000
C321 C 0.63791 0.58929 0.40685 0.00000
H322 H 0.74277 0.68378 0.31419 0.00000
N323 N 0.64916 0.61284 0.31015 0.00000
N324 N 0.60507 0.58503 0.38353 0.00000
O325 O 0.70648 0.52574 0.35635 0.00000
O326 O 0.67511 0.49456 0.30964 0.00000
H327 H 0.59185 0.63019 0.28267 0.00000
H328 H 0.71246 0.60999 0.33324 0.00000
H329 H 0.54232 0.61224 0.37087 0.00000
H330 H 0.53037 0.65841 0.41947 0.00000
H331 H 0.65724 0.61366 0.45280 0.00000
H332 H 0.66794 0.57443 0.40296 0.00000
C333 C 0.71022 0.50182 0.32972 0.00000
O334 O 0.52752 0.56956 0.32220 0.00000
O335 O 0.56773 0.52534 0.28591 0.00000
C336 C 0.68489 0.70220 0.28496 0.00000
C337 C 0.63861 0.68513 0.27536 0.00000
C338 C 0.78796 0.67335 0.19291 0.00000
Cd339 Cd 0.88411 0.54043 0.16641 0.00000
C340 C 0.96926 0.54796 0.20523 0.00000
C341 C 0.87711 0.64104 0.21123 0.00000
C342 C 0.80667 0.62897 0.18117 0.00000
C343 C 0.93407 0.61156 0.11211 0.00000
C344 C 0.94169 0.63914 0.08227 0.00000
C345 C 0.90955 0.63850 0.05623 0.00000
C346 C 0.86790 0.61381 0.06317 0.00000
C347 C 0.86208 0.58926 0.09316 0.00000
H348 H 0.75720 0.68373 0.18582 0.00000
N349 N 0.85082 0.61280 0.18986 0.00000
N350 N 0.89492 0.58501 0.11648 0.00000
O351 O 0.79352 0.52570 0.14366 0.00000
O352 O 0.82489 0.49452 0.19037 0.00000
H353 H 0.90812 0.63016 0.21734 0.00000
H354 H 0.78753 0.60994 0.16677 0.00000
H355 H 0.95766 0.61222 0.12914 0.00000
H356 H 0.96961 0.65839 0.08054 0.00000
H357 H 0.84275 0.61363 0.04721 0.00000
H358 H 0.83205 0.57439 0.09705 0.00000
C359 C 0.78978 0.50178 0.17029 0.00000
O360 O 0.97247 0.56955 0.17781 0.00000
O361 O 0.93227 0.52532 0.21410 0.00000
C362 C 0.81508 0.70216 0.21505 0.00000
C363 C 0.86136 0.68509 0.22465 0.00000
C364 C 0.82668 0.78792 0.69291 0.00000
Cd365 Cd 0.95960 0.88408 0.66640 0.00000
C366 C 0.95206 0.96923 0.70522 0.00000
C367 C 0.85899 0.87708 0.71122 0.00000
C368 C 0.87107 0.80663 0.68116 0.00000
C369 C 0.88846 0.93403 0.61209 0.00000
C370 C 0.86088 0.94164 0.58226 0.00000
C371 C 0.86153 0.90950 0.55622 0.00000
C372 C 0.88621 0.86786 0.56316 0.00000
C373 C 0.91077 0.86205 0.59315 0.00000
H374 H 0.81631 0.75716 0.68582 0.00000
N375 N 0.88723 0.85079 0.68985 0.00000
N376 N 0.91502 0.89489 0.61647 0.00000
O377 O 0.97434 0.79349 0.64365 0.00000
O378 O 0.00552 0.82487 0.69036 0.00000
H379 H 0.86987 0.90809 0.71732 0.00000
H380 H 0.89010 0.78749 0.66676 0.00000
H381 H 0.88779 0.95762 0.62913 0.00000
H382 H 0.84162 0.96956 0.58052 0.00000
H383 H 0.88640 0.84271 0.54720 0.00000
H384 H 0.92564 0.83202 0.59704 0.00000
C385 C 0.99826 0.78976 0.67028 0.00000
O386 O 0.93047 0.97244 0.67780 0.00000
O387 O 0.97471 0.93225 0.71409 0.00000
C388 C 0.79788 0.81504 0.71505 0.00000
C389 C 0.81494 0.86132 0.72464 0.00000
C390 C 0.71206 0.82663 0.19291 0.00000
Cd391 Cd 0.61592 0.95956 0.16640 0.00000
C392 C 0.53076 0.95203 0.20522 0.00000
C393 C 0.62290 0.85895 0.21122 0.00000
C394 C 0.69335 0.87102 0.18116 0.00000
C395 C 0.56596 0.88844 0.11209 0.00000
C396 C 0.55834 0.86086 0.08226 0.00000
C397 C 0.59048 0.86150 0.05622 0.00000
C398 C 0.63213 0.88618 0.06316 0.00000
C399 C 0.63795 0.91073 0.09315 0.00000
H400 H 0.74281 0.81626 0.18582 0.00000
N401 N 0.64920 0.88719 0.18985 0.00000
N402 N 0.60510 0.91499 0.11647 0.00000
O403 O 0.70651 0.97429 0.14365 0.00000
O404 O 0.67513 0.00547 0.19036 0.00000
H405 H 0.59189 0.86983 0.21732 0.00000
H406 H 0.71249 0.89005 0.16677 0.00000
H407 H 0.54236 0.88777 0.12913 0.00000
H408 H 0.53042 0.84160 0.08052 0.00000
H409 H 0.65728 0.88636 0.04720 0.00000
H410 H 0.66798 0.92560 0.09704 0.00000
C411 C 0.71025 0.99821 0.17028 0.00000
O412 O 0.52755 0.93045 0.17780 0.00000
O413 O 0.56775 0.97468 0.21408 0.00000
C414 C 0.68493 0.79783 0.21505 0.00000
C415 C 0.63866 0.81490 0.22464 0.00000
C416 C 0.85954 0.60956 0.98897 0.00000
C417 C 0.90178 0.62919 0.01104 0.00000
H418 H 0.82015 0.61361 0.99804 0.00000
H419 H 0.94117 0.62513 0.00197 0.00000
C420 C 0.88953 0.87750 0.48148 0.00000
C421 C 0.87176 0.88378 0.51851 0.00000
H422 H 0.88190 0.90724 0.46181 0.00000
H423 H 0.87939 0.85405 0.53819 0.00000
C424 C 0.63485 0.61732 0.51634 0.00000
C425 C 0.60383 0.62139 0.48366 0.00000
H426 H 0.65264 0.65133 0.52767 0.00000
H427 H 0.58604 0.58738 0.47234 0.00000
C428 C 0.13504 0.11727 0.48375 0.00000
C429 C 0.10366 0.12143 0.51625 0.00000
H430 H 0.15352 0.15113 0.47274 0.00000
H431 H 0.08518 0.08756 0.52725 0.00000
C432 C 0.37773 0.38996 0.48157 0.00000
C433 C 0.38356 0.37131 0.51843 0.00000
H434 H 0.40830 0.38403 0.46224 0.00000
H435 H 0.35299 0.37725 0.53776 0.00000
C436 C 0.13898 0.39514 0.00977 0.00000
C437 C 0.09967 0.36612 0.99025 0.00000
H438 H 0.17275 0.40912 0.99579 0.00000
H439 H 0.06591 0.35213 0.00423 0.00000
C440 C 0.37765 0.10139 0.01498 0.00000
C441 C 0.38363 0.13729 0.98500 0.00000
H442 H 0.40797 0.07418 0.02112 0.00000
H443 H 0.35331 0.16450 0.97886 0.00000
C444 C 0.62123 0.89462 0.98298 0.00000
C445 C 0.61749 0.86669 0.01700 0.00000
H446 H 0.58660 0.90651 0.96908 0.00000
H447 H 0.65212 0.85480 0.03090 0.00000
C448 C 0.73174 0.77058 0.78477 0.00000
C449 C 0.76828 0.72948 0.77635 0.00000
H450 H 0.69809 0.76240 0.80095 0.00000
H451 H 0.80193 0.73765 0.76017 0.00000
C452 C 0.72496 0.74236 0.28784 0.00000
C453 C 0.77495 0.75771 0.27329 0.00000
H454 H 0.71605 0.74943 0.31583 0.00000
H455 H 0.78386 0.75065 0.24530 0.00000
C456 C 0.75913 0.77436 0.71197 0.00000
C457 C 0.74094 0.72557 0.72690 0.00000
H458 H 0.75751 0.78100 0.68327 0.00000
H459 H 0.74257 0.71893 0.75560 0.00000
C460 C 0.27692 0.25297 0.72462 0.00000
C461 C 0.22293 0.24717 0.71425 0.00000
H462 H 0.29354 0.22754 0.74453 0.00000
H463 H 0.20631 0.27259 0.69434 0.00000
C464 C 0.25908 0.27435 0.27311 0.00000
C465 C 0.24105 0.22549 0.28802 0.00000
H466 H 0.25716 0.28111 0.24443 0.00000
H467 H 0.24298 0.21873 0.31670 0.00000
C468 C 0.25047 0.22195 0.22126 0.00000
C469 C 0.24954 0.27799 0.21760 0.00000
H470 H 0.21566 0.20138 0.22830 0.00000
H471 H 0.28436 0.29856 0.21056 0.00000
C472 C 0.27117 0.23329 0.78613 0.00000
C473 C 0.22876 0.26670 0.77501 0.00000
H474 H 0.26552 0.20563 0.80753 0.00000
H475 H 0.23441 0.29437 0.75361 0.00000
C476 C 0.77407 0.74010 0.22694 0.00000
C477 C 0.72595 0.75989 0.21194 0.00000
H478 H 0.77940 0.73862 0.25577 0.00000
H479 H 0.72061 0.76137 0.18311 0.00000
C480 C 0.77236 0.61284 0.76012 0.00000
C481 C 0.72769 0.63107 0.73988 0.00000
H482 H 0.76981 0.57772 0.77569 0.00000
H483 H 0.73024 0.66619 0.72431 0.00000
C484 C 0.86816 0.72716 0.24084 0.00000
C485 C 0.88791 0.77286 0.25917 0.00000
H486 H 0.83013 0.72772 0.22894 0.00000
H487 H 0.92593 0.77230 0.27107 0.00000
C488 C 0.11244 0.27256 0.75976 0.00000
C489 C 0.13135 0.22750 0.74025 0.00000
H490 H 0.07606 0.27077 0.77389 0.00000
H491 H 0.16773 0.22929 0.72611 0.00000
C492 C 0.27063 0.37611 0.26333 0.00000
C493 C 0.22944 0.37987 0.23667 0.00000
H494 H 0.26138 0.36891 0.29125 0.00000
H495 H 0.23869 0.38707 0.20875 0.00000
C496 C 0.36818 0.22416 0.75359 0.00000
C497 C 0.38781 0.27591 0.74641 0.00000
H498 H 0.33039 0.21311 0.74405 0.00000
H499 H 0.42560 0.28696 0.75595 0.00000
C500 C 0.22350 0.11316 0.25235 0.00000
C501 C 0.27658 0.13066 0.24764 0.00000
H502 H 0.20987 0.07955 0.23802 0.00000
H503 H 0.29021 0.16426 0.26197 0.00000
C504 C 0.77165 0.88557 0.73858 0.00000
C505 C 0.72839 0.87051 0.76141 0.00000
H506 H 0.76640 0.91459 0.71802 0.00000
H507 H 0.73364 0.84150 0.78197 0.00000
C508 C 0.63109 0.77235 0.23990 0.00000
C509 C 0.61277 0.72768 0.26010 0.00000
H510 H 0.66628 0.76980 0.22441 0.00000
H511 H 0.57759 0.73022 0.27559 0.00000
C512 C 0.96857 0.50538 0.78055 0.00000
C513 C 0.99051 0.45375 0.78384 0.00000
H514 H 0.99320 0.53775 0.77424 0.00000
H515 H 0.96587 0.42138 0.79015 0.00000
C516 C 0.04587 0.99090 0.27926 0.00000
C517 C 0.99506 0.96815 0.28510 0.00000
H518 H 0.07663 0.96786 0.26803 0.00000
H519 H 0.96430 0.99120 0.29634 0.00000
C520 C 0.54153 0.49526 0.72484 0.00000
C521 C 0.49934 0.46387 0.71081 0.00000
H522 H 0.55573 0.48880 0.75182 0.00000
H523 H 0.48514 0.47033 0.68383 0.00000
C524 C 0.00369 0.03312 0.71293 0.00000
C525 C 0.95538 0.00782 0.72269 0.00000
H526 H 0.02977 0.01484 0.69418 0.00000
H527 H 0.92929 0.02610 0.74145 0.00000
C528 C 0.49260 0.54417 0.27684 0.00000
C529 C 0.46652 0.49669 0.28752 0.00000
H530 H 0.47595 0.56854 0.25630 0.00000
H531 H 0.48316 0.47232 0.30806 0.00000
C532 C 0.04504 0.50822 0.22220 0.00000
C533 C 0.99589 0.53266 0.21347 0.00000
H534 H 0.07269 0.52810 0.23897 0.00000
H535 H 0.96824 0.51278 0.19670 0.00000
C536 C 0.50380 0.96699 0.22260 0.00000
C537 C 0.45532 0.99209 0.21301 0.00000
H538 H 0.53015 0.98558 0.24102 0.00000
H539 H 0.42897 0.97349 0.19459 0.00000
C540 C 0.49502 0.03184 0.77931 0.00000
C541 C 0.54587 0.00910 0.78503 0.00000
H542 H 0.46414 0.00871 0.76831 0.00000
H543 H 0.57675 0.03223 0.79603 0.00000
loop_
_geom_bond_atom_site_label_1
_geom_bond_atom_site_label_2
_geom_bond_distance
_geom_bond_site_symmetry_2
_ccdc_geom_bond_type
C0 C4 1.396 . A
C0 H10 0.930 . S
C0 C24 1.387 . A
Cd1 N11 2.365 . S
Cd1 N12 2.324 . S
Cd1 O13 2.664 . S
Cd1 O14 2.254 1_655 S
Cd1 O22 2.584 . S
Cd1 O23 2.323 . S
C2 O22 1.229 . A
C2 O23 1.236 . A
C3 N11 1.347 . A
C3 H15 0.930 . S
C3 C25 1.384 . A
C4 N11 1.330 . A
C4 H16 0.929 . S
C5 C6 1.407 . A
C5 N12 1.305 . A
C5 H17 0.929 . S
C6 C7 1.347 . A
C6 H18 0.930 . S
C7 C8 1.352 . A
C8 C9 1.363 . A
C8 H19 0.930 . S
C9 N12 1.287 . A
C9 H20 0.929 . S
O13 C21 1.236 . A
O14 C21 1.257 1_455 A
C24 C25 1.401 . A
C26 C30 1.396 . A
C26 H36 0.930 . S
C26 C50 1.387 . A
Cd27 N37 2.365 . S
Cd27 N38 2.324 . S
Cd27 O39 2.664 . S
Cd27 O40 2.254 1_565 S
Cd27 O48 2.584 . S
Cd27 O49 2.323 . S
C28 O48 1.229 . A
C28 O49 1.236 . A
C29 N37 1.347 . A
C29 H41 0.930 . S
C29 C51 1.384 . A
C30 N37 1.330 . A
C30 H42 0.929 . S
C31 C32 1.407 . A
C31 N38 1.305 . A
C31 H43 0.929 . S
C32 C33 1.347 . A
C32 H44 0.930 . S
C33 C34 1.352 . A
C34 C35 1.363 . A
C34 H45 0.930 . S
C35 N38 1.287 . A
C35 H46 0.929 . S
O39 C47 1.236 . A
O40 C47 1.257 1_545 A
C50 C51 1.401 . A
C52 C56 1.396 . A
C52 H62 0.930 . S
C52 C76 1.387 . A
Cd53 N63 2.365 . S
Cd53 N64 2.324 . S
Cd53 O65 2.664 . S
Cd53 O66 2.254 . S
Cd53 O74 2.584 . S
Cd53 O75 2.323 . S
C54 O74 1.229 . A
C54 O75 1.236 . A
C55 N63 1.347 . A
C55 H67 0.930 . S
C55 C77 1.384 . A
C56 N63 1.330 . A
C56 H68 0.929 . S
C57 C58 1.407 . A
C57 N64 1.305 . A
C57 H69 0.929 . S
C58 C59 1.347 . A
C58 H70 0.930 . S
C59 C60 1.352 . A
C60 C61 1.363 . A
C60 H71 0.930 . S
C61 N64 1.287 . A
C61 H72 0.929 . S
O65 C73 1.236 . A
O66 C73 1.257 . A
C76 C77 1.401 . A
C78 C82 1.396 . A
C78 H88 0.930 . S
C78 C102 1.387 . A
Cd79 N89 2.365 . S
Cd79 N90 2.324 . S
Cd79 O91 2.664 . S
Cd79 O92 2.254 1_545 S
Cd79 O100 2.584 . S
Cd79 O101 2.323 . S
C80 O100 1.229 . A
C80 O101 1.236 . A
C81 N89 1.347 . A
C81 H93 0.930 . S
C81 C103 1.384 . A
C82 N89 1.330 . A
C82 H94 0.929 . S
C83 C84 1.407 . A
C83 N90 1.305 . A
C83 H95 0.929 . S
C84 C85 1.347 . A
C84 H96 0.930 . S
C85 C86 1.352 . A
C86 C87 1.363 . A
C86 H97 0.930 . S
C87 N90 1.287 . A
C87 H98 0.929 . S
O91 C99 1.236 . A
O92 C99 1.257 1_565 A
C102 C103 1.401 . A
C104 C108 1.396 . A
C104 H114 0.930 . S
C104 C128 1.387 . A
Cd105 N115 2.365 . S
Cd105 N116 2.324 . S
Cd105 O117 2.664 . S
Cd105 O118 2.254 . S
Cd105 O126 2.584 . S
Cd105 O127 2.323 . S
C106 O126 1.229 . A
C106 O127 1.236 . A
C107 N115 1.347 . A
C107 H119 0.930 . S
C107 C129 1.384 . A
C108 N115 1.330 . A
C108 H120 0.929 . S
C109 C110 1.407 . A
C109 N116 1.305 . A
C109 H121 0.929 . S
C110 C111 1.347 . A
C110 H122 0.930 . S
C111 C112 1.352 . A
C112 C113 1.363 . A
C112 H123 0.930 . S
C113 N116 1.287 . A
C113 H124 0.929 . S
O117 C125 1.236 . A
O118 C125 1.257 . A
C128 C129 1.401 . A
C130 C134 1.396 . A
C130 H140 0.930 . S
C130 C154 1.387 . A
Cd131 N141 2.365 . S
Cd131 N142 2.324 . S
Cd131 O143 2.664 . S
Cd131 O144 2.254 . S
Cd131 O152 2.584 . S
Cd131 O153 2.323 . S
C132 O152 1.229 . A
C132 O153 1.236 . A
C133 N141 1.347 . A
C133 H145 0.930 . S
C133 C155 1.384 . A
C134 N141 1.330 . A
C134 H146 0.929 . S
C135 C136 1.407 . A
C135 N142 1.305 . A
C135 H147 0.929 . S
C136 C137 1.347 . A
C136 H148 0.930 . S
C137 C138 1.352 . A
C138 C139 1.363 . A
C138 H149 0.930 . S
C139 N142 1.287 . A
C139 H150 0.929 . S
O143 C151 1.236 . A
O144 C151 1.257 . A
C154 C155 1.401 . A
C156 C160 1.396 . A
C156 H166 0.930 . S
C156 C180 1.387 . A
Cd157 N167 2.365 . S
Cd157 N168 2.324 . S
Cd157 O169 2.664 . S
Cd157 O170 2.254 1_455 S
Cd157 O178 2.584 . S
Cd157 O179 2.323 . S
C158 O178 1.229 . A
C158 O179 1.236 . A
C159 N167 1.347 . A
C159 H171 0.930 . S
C159 C181 1.384 . A
C160 N167 1.330 . A
C160 H172 0.929 . S
C161 C162 1.407 . A
C161 N168 1.305 . A
C161 H173 0.929 . S
C162 C163 1.347 . A
C162 H174 0.930 . S
C163 C164 1.352 . A
C164 C165 1.363 . A
C164 H175 0.930 . S
C165 N168 1.287 . A
C165 H176 0.929 . S
O169 C177 1.236 . A
O170 C177 1.257 1_655 A
C180 C181 1.401 . A
C182 C186 1.396 . A
C182 H192 0.930 . S
C182 C206 1.387 . A
Cd183 N193 2.365 . S
Cd183 N194 2.324 . S
Cd183 O195 2.664 . S
Cd183 O196 2.254 . S
Cd183 O204 2.584 . S
Cd183 O205 2.323 . S
C184 O204 1.229 . A
C184 O205 1.236 . A
C185 N193 1.347 . A
C185 H197 0.930 . S
C185 C207 1.384 . A
C186 N193 1.330 . A
C186 H198 0.929 . S
C187 C188 1.407 . A
C187 N194 1.305 . A
C187 H199 0.929 . S
C188 C189 1.347 . A
C188 H200 0.930 . S
C189 C190 1.352 . A
C190 C191 1.363 . A
C190 H201 0.930 . S
C191 N194 1.287 . A
C191 H202 0.929 . S
O195 C203 1.236 . A
O196 C203 1.257 . A
C206 C207 1.401 . A
C208 C212 1.396 . A
C208 H218 0.930 . S
C208 C232 1.387 . A
Cd209 N219 2.365 . S
Cd209 N220 2.324 . S
Cd209 O221 2.664 . S
Cd209 O222 2.254 . S
Cd209 O230 2.584 . S
Cd209 O231 2.323 . S
C210 O230 1.229 . A
C210 O231 1.236 . A
C211 N219 1.347 . A
C211 H223 0.930 . S
C211 C233 1.384 . A
C212 N219 1.330 . A
C212 H224 0.929 . S
C213 C214 1.407 . A
C213 N220 1.305 . A
C213 H225 0.929 . S
C214 C215 1.347 . A
C214 H226 0.930 . S
C215 C216 1.352 . A
C216 C217 1.363 . A
C216 H227 0.930 . S
C217 N220 1.287 . A
C217 H228 0.929 . S
O221 C229 1.236 . A
O222 C229 1.257 . A
C232 C233 1.401 . A
C234 C238 1.396 . A
C234 H244 0.930 . S
C234 C258 1.387 . A
Cd235 N245 2.365 . S
Cd235 N246 2.324 . S
Cd235 O247 2.664 . S
Cd235 O248 2.254 1_455 S
Cd235 O256 2.584 . S
Cd235 O257 2.323 . S
C236 O256 1.229 . A
C236 O257 1.236 . A
C237 N245 1.347 . A
C237 H249 0.930 . S
C237 C259 1.384 . A
C238 N245 1.330 . A
C238 H250 0.929 . S
C239 C240 1.407 . A
C239 N246 1.305 . A
C239 H251 0.929 . S
C240 C241 1.347 . A
C240 H252 0.930 . S
C241 C242 1.352 . A
C242 C243 1.363 . A
C242 H253 0.930 . S
C243 N246 1.287 . A
C243 H254 0.929 . S
O247 C255 1.236 . A
O248 C255 1.257 1_655 A
C258 C259 1.401 . A
C260 C264 1.396 . A
C260 H270 0.930 . S
C260 C284 1.387 . A
Cd261 N271 2.365 . S
Cd261 N272 2.324 . S
Cd261 O273 2.664 . S
Cd261 O274 2.254 1_545 S
Cd261 O282 2.584 . S
Cd261 O283 2.323 . S
C262 O282 1.229 . A
C262 O283 1.236 . A
C263 N271 1.347 . A
C263 H275 0.930 . S
C263 C285 1.384 . A
C264 N271 1.330 . A
C264 H276 0.929 . S
C265 C266 1.407 . A
C265 N272 1.305 . A
C265 H277 0.929 . S
C266 C267 1.347 . A
C266 H278 0.930 . S
C267 C268 1.352 . A
C268 C269 1.363 . A
C268 H279 0.930 . S
C269 N272 1.287 . A
C269 H280 0.929 . S
O273 C281 1.236 . A
O274 C281 1.257 1_565 A
C284 C285 1.401 . A
C286 C290 1.396 . A
C286 H296 0.930 . S
C286 C310 1.387 . A
Cd287 N297 2.365 . S
Cd287 N298 2.324 . S
Cd287 O299 2.664 . S
Cd287 O300 2.254 . S
Cd287 O308 2.584 . S
Cd287 O309 2.323 . S
C288 O308 1.229 . A
C288 O309 1.236 . A
C289 N297 1.347 . A
C289 H301 0.930 . S
C289 C311 1.384 . A
C290 N297 1.330 . A
C290 H302 0.929 . S
C291 C292 1.407 . A
C291 N298 1.305 . A
C291 H303 0.929 . S
C292 C293 1.347 . A
C292 H304 0.930 . S
C293 C294 1.352 . A
C294 C295 1.363 . A
C294 H305 0.930 . S
C295 N298 1.287 . A
C295 H306 0.929 . S
O299 C307 1.236 . A
O300 C307 1.257 . A
C310 C311 1.401 . A
C312 C316 1.396 . A
C312 H322 0.930 . S
C312 C336 1.387 . A
Cd313 N323 2.365 . S
Cd313 N324 2.324 . S
Cd313 O325 2.664 . S
Cd313 O326 2.254 . S
Cd313 O334 2.584 . S
Cd313 O335 2.323 . S
C314 O334 1.229 . A
C314 O335 1.236 . A
C315 N323 1.347 . A
C315 H327 0.930 . S
C315 C337 1.384 . A
C316 N323 1.330 . A
C316 H328 0.929 . S
C317 C318 1.407 . A
C317 N324 1.305 . A
C317 H329 0.929 . S
C318 C319 1.347 . A
C318 H330 0.930 . S
C319 C320 1.352 . A
C320 C321 1.363 . A
C320 H331 0.930 . S
C321 N324 1.287 . A
C321 H332 0.929 . S
O325 C333 1.236 . A
O326 C333 1.257 . A
C336 C337 1.401 . A
C338 C342 1.396 . A
C338 H348 0.930 . S
C338 C362 1.387 . A
Cd339 N349 2.365 . S
Cd339 N350 2.324 . S
Cd339 O351 2.664 . S
Cd339 O352 2.254 . S
Cd339 O360 2.584 . S
Cd339 O361 2.323 . S
C340 O360 1.229 . A
C340 O361 1.236 . A
C341 N349 1.347 . A
C341 H353 0.930 . S
C341 C363 1.384 . A
C342 N349 1.330 . A
C342 H354 0.929 . S
C343 C344 1.407 . A
C343 N350 1.305 . A
C343 H355 0.929 . S
C344 C345 1.347 . A
C344 H356 0.930 . S
C345 C346 1.352 . A
C346 C347 1.363 . A
C346 H357 0.930 . S
C347 N350 1.287 . A
C347 H358 0.929 . S
O351 C359 1.236 . A
O352 C359 1.257 . A
C362 C363 1.401 . A
C364 C368 1.396 . A
C364 H374 0.930 . S
C364 C388 1.387 . A
Cd365 N375 2.365 . S
Cd365 N376 2.324 . S
Cd365 O377 2.664 . S
Cd365 O378 2.254 1_655 S
Cd365 O386 2.584 . S
Cd365 O387 2.323 . S
C366 O386 1.229 . A
C366 O387 1.236 . A
C367 N375 1.347 . A
C367 H379 0.930 . S
C367 C389 1.384 . A
C368 N375 1.330 . A
C368 H380 0.929 . S
C369 C370 1.407 . A
C369 N376 1.305 . A
C369 H381 0.929 . S
C370 C371 1.347 . A
C370 H382 0.930 . S
C371 C372 1.352 . A
C372 C373 1.363 . A
C372 H383 0.930 . S
C373 N376 1.287 . A
C373 H384 0.929 . S
O377 C385 1.236 . A
O378 C385 1.257 1_455 A
C388 C389 1.401 . A
C390 C394 1.396 . A
C390 H400 0.930 . S
C390 C414 1.387 . A
Cd391 N401 2.365 . S
Cd391 N402 2.324 . S
Cd391 O403 2.664 . S
Cd391 O404 2.254 1_565 S
Cd391 O412 2.584 . S
Cd391 O413 2.323 . S
C392 O412 1.229 . A
C392 O413 1.236 . A
C393 N401 1.347 . A
C393 H405 0.930 . S
C393 C415 1.384 . A
C394 N401 1.330 . A
C394 H406 0.929 . S
C395 C396 1.407 . A
C395 N402 1.305 . A
C395 H407 0.929 . S
C396 C397 1.347 . A
C396 H408 0.930 . S
C397 C398 1.352 . A
C398 C399 1.363 . A
C398 H409 0.930 . S
C399 N402 1.287 . A
C399 H410 0.929 . S
O403 C411 1.236 . A
O404 C411 1.257 1_545 A
C414 C415 1.401 . A
C416 C417 1.540 1_556 D
C416 H418 1.140 . S
C417 H419 1.140 . S
C420 C421 1.540 . D
C420 H422 1.140 . S
C421 H423 1.140 . S
C424 C425 1.540 . D
C424 H426 1.140 . S
C425 H427 1.140 . S
C428 C429 1.540 . D
C428 H430 1.140 . S
C429 H431 1.140 . S
C432 C433 1.540 . D
C432 H434 1.140 . S
C433 H435 1.140 . S
C436 C437 1.540 1_554 D
C436 H438 1.140 1_554 S
C437 H439 1.140 1_556 S
C440 C441 1.540 1_554 D
C440 H442 1.140 . S
C441 H443 1.140 . S
C444 C445 1.540 1_556 D
C444 H446 1.140 . S
C445 H447 1.140 . S
C448 C449 1.540 . D
C448 H450 1.140 . S
C449 H451 1.140 . S
C452 C453 1.540 . D
C452 H454 1.140 . S
C453 H455 1.140 . S
C456 C457 1.540 . D
C456 H458 1.140 . S
C457 H459 1.140 . S
C460 C461 1.540 . D
C460 H462 1.140 . S
C461 H463 1.140 . S
C464 C465 1.540 . D
C464 H466 1.140 . S
C465 H467 1.140 . S
C468 C469 1.540 . D
C468 H470 1.140 . S
C469 H471 1.140 . S
C472 C473 1.540 . D
C472 H474 1.140 . S
C473 H475 1.140 . S
C476 C477 1.540 . D
C476 H478 1.140 . S
C477 H479 1.140 . S
C480 C481 1.540 . D
C480 H482 1.140 . S
C481 H483 1.140 . S
C484 C485 1.540 . D
C484 H486 1.140 . S
C485 H487 1.140 . S
C488 C489 1.540 . D
C488 H490 1.140 . S
C489 H491 1.140 . S
C492 C493 1.540 . D
C492 H494 1.140 . S
C493 H495 1.140 . S
C496 C497 1.540 . D
C496 H498 1.140 . S
C497 H499 1.140 . S
C500 C501 1.540 . D
C500 H502 1.140 . S
C501 H503 1.140 . S
C504 C505 1.540 . D
C504 H506 1.140 . S
C505 H507 1.140 . S
C508 C509 1.540 . D
C508 H510 1.140 . S
C509 H511 1.140 . S
C512 C513 1.540 . D
C512 H514 1.140 . S
C513 H515 1.140 . S
C516 C517 1.540 1_455 D
C516 H518 1.140 . S
C517 H519 1.140 . S
C520 C521 1.540 . D
C520 H522 1.140 . S
C521 H523 1.140 . S
C524 C525 1.540 1_455 D
C524 H526 1.140 . S
C525 H527 1.140 . S
C528 C529 1.540 . D
C528 H530 1.140 . S
C529 H531 1.140 . S
C532 C533 1.540 1_455 D
C532 H534 1.140 . S
C533 H535 1.140 . S
C536 C537 1.540 . D
C536 H538 1.140 . S
C537 H539 1.140 . S
C540 C541 1.540 . D
C540 H542 1.140 . S
C541 H543 1.140 . S
C416 C7 1.847 . S
C417 C345 1.801 . S
C420 C33 1.635 . S
C421 C371 1.660 . S
C424 C59 1.730 . S
C425 C319 1.672 . S
C428 C241 1.732 . S
C429 C85 1.674 . S
C432 C111 1.636 . S
C433 C137 1.664 . S
C436 C163 1.863 . S
C437 C215 1.842 . S
C440 C189 1.701 . S
C441 C267 1.764 . S
C444 C293 1.659 . S
C445 C397 1.711 . S
C448 C310 1.462 . S
C449 C24 1.500 . S
C452 C336 1.556 . S
C453 C50 1.618 . S
C456 C388 1.541 . S
C457 C76 1.605 . S
C460 C154 1.654 . S
C461 C102 1.611 . S
C464 C128 1.606 . S
C465 C258 1.542 . S
C468 C206 1.663 . S
C469 C180 1.648 . S
C472 C284 1.472 . S
C473 C232 1.522 . S
C476 C362 1.598 . S
C477 C414 1.533 . S
C480 C25 1.487 . S
C481 C77 1.325 . S
C484 C363 1.327 . S
C485 C51 1.502 . S
C488 C233 1.493 . S
C489 C103 1.325 . S
C492 C129 1.363 . S
C493 C181 1.397 . S
C496 C285 1.380 . S
C497 C155 1.548 . S
C500 C259 1.548 . S
C501 C207 1.400 . S
C504 C389 1.463 . S
C505 C311 1.328 . S
C508 C415 1.325 . S
C509 C337 1.487 . S
C512 C2 0.999 . S
C513 C210 1.182 1_655 S
C516 C236 1.248 1_565 S
C517 C28 0.915 . S
C520 C54 1.251 . S
C521 C132 0.912 . S
C524 C80 0.897 . S
C525 C366 1.261 1_545 S
C528 C314 1.262 . S
C529 C106 0.896 . S
C532 C158 1.259 . S
C533 C340 0.900 . S
C536 C392 1.084 . S
C537 C184 1.104 1_565 S
C540 C262 1.029 . S
C541 C288 1.156 1_545 S
