# Generated by pormake.
# Topology wif, (6)-cn, num edge types: 1
# Building blocks:
#     Node 0, Type 0, BuildingBlock: N356, # of connection points: 6
#     Node 1, Type 0, BuildingBlock: N356, # of connection points: 6
#     Node 2, Type 0, BuildingBlock: N356, # of connection points: 6
#     Node 3, Type 0, BuildingBlock: N356, # of connection points: 6
#     Node 4, Type 0, BuildingBlock: N356, # of connection points: 6
#     Node 5, Type 0, BuildingBlock: N356, # of connection points: 6
#     Node 6, Type 0, BuildingBlock: N356, # of connection points: 6
#     Node 7, Type 0, BuildingBlock: N356, # of connection points: 6
#     Node 8, Type 0, BuildingBlock: N356, # of connection points: 6
#     Node 9, Type 0, BuildingBlock: N356, # of connection points: 6
#     Node 10, Type 0, BuildingBlock: N356, # of connection points: 6
#     Node 11, Type 0, BuildingBlock: N356, # of connection points: 6
#     Node 12, Type 0, BuildingBlock: N356, # of connection points: 6
#     Node 13, Type 0, BuildingBlock: N356, # of connection points: 6
#     Node 14, Type 0, BuildingBlock: N356, # of connection points: 6
#     Node 15, Type 0, BuildingBlock: N356, # of connection points: 6
#     Edge 16, Type (0, 0), BuildingBlock: E201, # of connection points: 2
#     Edge 17, Type (0, 0), BuildingBlock: E201, # of connection points: 2
#     Edge 18, Type (0, 0), BuildingBlock: E201, # of connection points: 2
#     Edge 19, Type (0, 0), BuildingBlock: E201, # of connection points: 2
#     Edge 20, Type (0, 0), BuildingBlock: E201, # of connection points: 2
#     Edge 21, Type (0, 0), BuildingBlock: E201, # of connection points: 2
#     Edge 22, Type (0, 0), BuildingBlock: E201, # of connection points: 2
#     Edge 23, Type (0, 0), BuildingBlock: E201, # of connection points: 2
#     Edge 24, Type (0, 0), BuildingBlock: E201, # of connection points: 2
#     Edge 25, Type (0, 0), BuildingBlock: E201, # of connection points: 2
#     Edge 26, Type (0, 0), BuildingBlock: E201, # of connection points: 2
#     Edge 27, Type (0, 0), BuildingBlock: E201, # of connection points: 2
#     Edge 28, Type (0, 0), BuildingBlock: E201, # of connection points: 2
#     Edge 29, Type (0, 0), BuildingBlock: E201, # of connection points: 2
#     Edge 30, Type (0, 0), BuildingBlock: E201, # of connection points: 2
#     Edge 31, Type (0, 0), BuildingBlock: E201, # of connection points: 2
#     Edge 32, Type (0, 0), BuildingBlock: E201, # of connection points: 2
#     Edge 33, Type (0, 0), BuildingBlock: E201, # of connection points: 2
#     Edge 34, Type (0, 0), BuildingBlock: E201, # of connection points: 2
#     Edge 35, Type (0, 0), BuildingBlock: E201, # of connection points: 2
#     Edge 36, Type (0, 0), BuildingBlock: E201, # of connection points: 2
#     Edge 37, Type (0, 0), BuildingBlock: E201, # of connection points: 2
#     Edge 38, Type (0, 0), BuildingBlock: E201, # of connection points: 2
#     Edge 39, Type (0, 0), BuildingBlock: E201, # of connection points: 2
#     Edge 40, Type (0, 0), BuildingBlock: E201, # of connection points: 2
#     Edge 41, Type (0, 0), BuildingBlock: E201, # of connection points: 2
#     Edge 42, Type (0, 0), BuildingBlock: E201, # of connection points: 2
#     Edge 43, Type (0, 0), BuildingBlock: E201, # of connection points: 2
#     Edge 44, Type (0, 0), BuildingBlock: E201, # of connection points: 2
#     Edge 45, Type (0, 0), BuildingBlock: E201, # of connection points: 2
#     Edge 46, Type (0, 0), BuildingBlock: E201, # of connection points: 2
#     Edge 47, Type (0, 0), BuildingBlock: E201, # of connection points: 2
#     Edge 48, Type (0, 0), BuildingBlock: E201, # of connection points: 2
#     Edge 49, Type (0, 0), BuildingBlock: E201, # of connection points: 2
#     Edge 50, Type (0, 0), BuildingBlock: E201, # of connection points: 2
#     Edge 51, Type (0, 0), BuildingBlock: E201, # of connection points: 2
#     Edge 52, Type (0, 0), BuildingBlock: E201, # of connection points: 2
#     Edge 53, Type (0, 0), BuildingBlock: E201, # of connection points: 2
#     Edge 54, Type (0, 0), BuildingBlock: E201, # of connection points: 2
#     Edge 55, Type (0, 0), BuildingBlock: E201, # of connection points: 2
#     Edge 56, Type (0, 0), BuildingBlock: E201, # of connection points: 2
#     Edge 57, Type (0, 0), BuildingBlock: E201, # of connection points: 2
#     Edge 58, Type (0, 0), BuildingBlock: E201, # of connection points: 2
#     Edge 59, Type (0, 0), BuildingBlock: E201, # of connection points: 2
#     Edge 60, Type (0, 0), BuildingBlock: E201, # of connection points: 2
#     Edge 61, Type (0, 0), BuildingBlock: E201, # of connection points: 2
#     Edge 62, Type (0, 0), BuildingBlock: E201, # of connection points: 2
#     Edge 63, Type (0, 0), BuildingBlock: E201, # of connection points: 2
# Relax obj value: 0.506
# Max RMSD: 0.195
# Mean RMSD: 0.195
data_wif+N356+E201
_symmetry_space_group_name_H-M    P1
_symmetry_Int_Tables_number       1
_symmetry_cell_setting            triclinic
loop_
_symmetry_equiv_pos_as_xyz
'x, y, z'
_cell_length_a     29.071
_cell_length_b     29.071
_cell_length_c     38.179
_cell_angle_alpha  90.000
_cell_angle_beta   90.000
_cell_angle_gamma  90.000
loop_
_atom_site_label
_atom_site_type_symbol
_atom_site_fract_x
_atom_site_fract_y
_atom_site_fract_z
_atom_type_partial_charge
Ca0 Ca 0.17351 0.58691 0.62790 0.00000
Ca1 Ca 0.20726 0.45593 0.59869 0.00000
O2 O 0.15256 0.40011 0.55736 0.00000
O3 O 0.20279 0.44785 0.53547 0.00000
C4 C 0.17084 0.41996 0.53239 0.00000
O5 O 0.16434 0.42985 0.64747 0.00000
O6 O 0.11263 0.46193 0.68287 0.00000
C7 C 0.14827 0.43842 0.67689 0.00000
O8 O 0.15097 0.51532 0.59273 0.00000
O9 O 0.09214 0.55491 0.61280 0.00000
O10 O 0.15769 0.66315 0.65162 0.00000
O11 O 0.21865 0.63484 0.67761 0.00000
O12 O 0.23866 0.38148 0.60191 0.00000
O13 O 0.26882 0.46482 0.64402 0.00000
O14 O 0.22896 0.52813 0.63529 0.00000
C15 C 0.10803 0.52290 0.59522 0.00000
C16 C 0.19162 0.66691 0.67192 0.00000
C17 C 0.24945 0.34105 0.59736 0.00000
C18 C 0.26320 0.50720 0.64788 0.00000
Ca19 Ca 0.58691 0.82649 0.37210 0.00000
Ca20 Ca 0.45593 0.79274 0.40131 0.00000
O21 O 0.40011 0.84744 0.44264 0.00000
O22 O 0.44785 0.79721 0.46453 0.00000
C23 C 0.41996 0.82916 0.46761 0.00000
O24 O 0.42985 0.83566 0.35253 0.00000
O25 O 0.46193 0.88737 0.31713 0.00000
C26 C 0.43842 0.85173 0.32311 0.00000
O27 O 0.51532 0.84903 0.40727 0.00000
O28 O 0.55491 0.90786 0.38720 0.00000
O29 O 0.66315 0.84231 0.34838 0.00000
O30 O 0.63484 0.78135 0.32239 0.00000
O31 O 0.38148 0.76134 0.39809 0.00000
O32 O 0.46482 0.73118 0.35598 0.00000
O33 O 0.52813 0.77104 0.36471 0.00000
C34 C 0.52290 0.89197 0.40478 0.00000
C35 C 0.66691 0.80838 0.32808 0.00000
C36 C 0.34105 0.75055 0.40264 0.00000
C37 C 0.50720 0.73680 0.35212 0.00000
Ca38 Ca 0.82647 0.08688 0.62209 0.00000
Ca39 Ca 0.79273 0.95589 0.65130 0.00000
O40 O 0.84743 0.90008 0.69263 0.00000
O41 O 0.79720 0.94781 0.71452 0.00000
C42 C 0.82915 0.91992 0.71760 0.00000
O43 O 0.83565 0.92982 0.60252 0.00000
O44 O 0.88736 0.96190 0.56712 0.00000
C45 C 0.85173 0.93839 0.57310 0.00000
O46 O 0.84901 0.01529 0.65726 0.00000
O47 O 0.90785 0.05488 0.63719 0.00000
O48 O 0.84229 0.16312 0.59837 0.00000
O49 O 0.78133 0.13481 0.57238 0.00000
O50 O 0.76133 0.88144 0.64808 0.00000
O51 O 0.73117 0.96478 0.60596 0.00000
O52 O 0.77102 0.02810 0.61470 0.00000
C53 C 0.89196 0.02287 0.65478 0.00000
C54 C 0.80836 0.16688 0.57808 0.00000
C55 C 0.75055 0.84102 0.65263 0.00000
C56 C 0.73679 0.00717 0.60211 0.00000
Ca57 Ca 0.08690 0.32648 0.87209 0.00000
Ca58 Ca 0.95592 0.29273 0.90130 0.00000
O59 O 0.90010 0.34743 0.94263 0.00000
O60 O 0.94783 0.29720 0.96452 0.00000
C61 C 0.91994 0.32915 0.96760 0.00000
O62 O 0.92983 0.33564 0.85252 0.00000
O63 O 0.96192 0.38736 0.81712 0.00000
C64 C 0.93841 0.35172 0.82310 0.00000
O65 O 0.01531 0.34902 0.90726 0.00000
O66 O 0.05490 0.40785 0.88719 0.00000
O67 O 0.16314 0.34230 0.84837 0.00000
O68 O 0.13483 0.28134 0.82238 0.00000
O69 O 0.88147 0.26133 0.89808 0.00000
O70 O 0.96481 0.23117 0.85597 0.00000
O71 O 0.02812 0.27102 0.86470 0.00000
C72 C 0.02289 0.39196 0.90477 0.00000
C73 C 0.16690 0.30837 0.82808 0.00000
C74 C 0.84104 0.25054 0.90263 0.00000
C75 C 0.00719 0.23679 0.85211 0.00000
Ca76 Ca 0.32649 0.58691 0.12210 0.00000
Ca77 Ca 0.29273 0.45593 0.15131 0.00000
O78 O 0.34743 0.40011 0.19264 0.00000
O79 O 0.29720 0.44785 0.21452 0.00000
C80 C 0.32915 0.41996 0.21761 0.00000
O81 O 0.33565 0.42985 0.10253 0.00000
O82 O 0.38736 0.46193 0.06713 0.00000
C83 C 0.35173 0.43842 0.07311 0.00000
O84 O 0.34902 0.51532 0.15726 0.00000
O85 O 0.40786 0.55491 0.13720 0.00000
O86 O 0.34231 0.66315 0.09838 0.00000
O87 O 0.28134 0.63484 0.07239 0.00000
O88 O 0.26133 0.38148 0.14809 0.00000
O89 O 0.23117 0.46482 0.10597 0.00000
O90 O 0.27103 0.52813 0.11471 0.00000
C91 C 0.39196 0.52290 0.15478 0.00000
C92 C 0.30837 0.66691 0.07808 0.00000
C93 C 0.25054 0.34105 0.15263 0.00000
C94 C 0.23679 0.50721 0.10211 0.00000
Ca95 Ca 0.91310 0.67352 0.87209 0.00000
Ca96 Ca 0.04408 0.70727 0.90130 0.00000
O97 O 0.09990 0.65257 0.94263 0.00000
O98 O 0.05217 0.70280 0.96452 0.00000
C99 C 0.08006 0.67085 0.96760 0.00000
O100 O 0.07017 0.66436 0.85252 0.00000
O101 O 0.03808 0.61264 0.81712 0.00000
C102 C 0.06159 0.64828 0.82310 0.00000
O103 O 0.98469 0.65098 0.90726 0.00000
O104 O 0.94510 0.59215 0.88719 0.00000
O105 O 0.83686 0.65770 0.84837 0.00000
O106 O 0.86517 0.71866 0.82238 0.00000
O107 O 0.11853 0.73867 0.89808 0.00000
O108 O 0.03519 0.76883 0.85597 0.00000
O109 O 0.97188 0.72898 0.86470 0.00000
C110 C 0.97711 0.60804 0.90477 0.00000
C111 C 0.83310 0.69163 0.82808 0.00000
C112 C 0.15896 0.74946 0.90263 0.00000
C113 C 0.99281 0.76321 0.85211 0.00000
Ca114 Ca 0.67352 0.08690 0.12791 0.00000
Ca115 Ca 0.70727 0.95592 0.09870 0.00000
O116 O 0.65257 0.90010 0.05737 0.00000
O117 O 0.70280 0.94783 0.03548 0.00000
C118 C 0.67085 0.91994 0.03240 0.00000
O119 O 0.66436 0.92983 0.14748 0.00000
O120 O 0.61264 0.96192 0.18288 0.00000
C121 C 0.64828 0.93841 0.17690 0.00000
O122 O 0.65098 0.01531 0.09274 0.00000
O123 O 0.59215 0.05490 0.11281 0.00000
O124 O 0.65770 0.16314 0.15163 0.00000
O125 O 0.71866 0.13483 0.17762 0.00000
O126 O 0.73867 0.88147 0.10192 0.00000
O127 O 0.76883 0.96481 0.14403 0.00000
O128 O 0.72898 0.02812 0.13530 0.00000
C129 C 0.60804 0.02289 0.09523 0.00000
C130 C 0.69163 0.16690 0.17192 0.00000
C131 C 0.74946 0.84104 0.09737 0.00000
C132 C 0.76321 0.00719 0.14789 0.00000
Ca133 Ca 0.32648 0.91310 0.12791 0.00000
Ca134 Ca 0.29273 0.04408 0.09870 0.00000
O135 O 0.34743 0.09990 0.05737 0.00000
O136 O 0.29720 0.05217 0.03548 0.00000
C137 C 0.32915 0.08006 0.03240 0.00000
O138 O 0.33564 0.07017 0.14748 0.00000
O139 O 0.38736 0.03808 0.18288 0.00000
C140 C 0.35172 0.06159 0.17690 0.00000
O141 O 0.34902 0.98469 0.09274 0.00000
O142 O 0.40785 0.94510 0.11281 0.00000
O143 O 0.34230 0.83686 0.15163 0.00000
O144 O 0.28134 0.86517 0.17762 0.00000
O145 O 0.26133 0.11853 0.10192 0.00000
O146 O 0.23117 0.03519 0.14403 0.00000
O147 O 0.27102 0.97188 0.13530 0.00000
C148 C 0.39196 0.97711 0.09523 0.00000
C149 C 0.30837 0.83310 0.17192 0.00000
C150 C 0.25054 0.15896 0.09737 0.00000
C151 C 0.23679 0.99281 0.14789 0.00000
Ca152 Ca 0.58691 0.67351 0.87790 0.00000
Ca153 Ca 0.45593 0.70727 0.84869 0.00000
O154 O 0.40011 0.65257 0.80736 0.00000
O155 O 0.44785 0.70280 0.78548 0.00000
C156 C 0.41996 0.67085 0.78239 0.00000
O157 O 0.42985 0.66435 0.89747 0.00000
O158 O 0.46193 0.61264 0.93287 0.00000
C159 C 0.43842 0.64827 0.92689 0.00000
O160 O 0.51532 0.65098 0.84274 0.00000
O161 O 0.55491 0.59214 0.86280 0.00000
O162 O 0.66315 0.65769 0.90162 0.00000
O163 O 0.63484 0.71866 0.92761 0.00000
O164 O 0.38148 0.73867 0.85191 0.00000
O165 O 0.46482 0.76883 0.89403 0.00000
O166 O 0.52813 0.72897 0.88529 0.00000
C167 C 0.52290 0.60804 0.84522 0.00000
C168 C 0.66691 0.69163 0.92192 0.00000
C169 C 0.34105 0.74946 0.84737 0.00000
C170 C 0.50721 0.76321 0.89789 0.00000
Ca171 Ca 0.67351 0.41309 0.12210 0.00000
Ca172 Ca 0.70727 0.54407 0.15131 0.00000
O173 O 0.65257 0.59989 0.19264 0.00000
O174 O 0.70280 0.55215 0.21452 0.00000
C175 C 0.67085 0.58004 0.21761 0.00000
O176 O 0.66435 0.57015 0.10253 0.00000
O177 O 0.61264 0.53807 0.06713 0.00000
C178 C 0.64827 0.56158 0.07311 0.00000
O179 O 0.65098 0.48468 0.15726 0.00000
O180 O 0.59214 0.44509 0.13720 0.00000
O181 O 0.65769 0.33685 0.09838 0.00000
O182 O 0.71866 0.36516 0.07239 0.00000
O183 O 0.73867 0.61852 0.14809 0.00000
O184 O 0.76883 0.53518 0.10597 0.00000
O185 O 0.72897 0.47187 0.11471 0.00000
C186 C 0.60804 0.47710 0.15478 0.00000
C187 C 0.69163 0.33309 0.07808 0.00000
C188 C 0.74946 0.65895 0.15263 0.00000
C189 C 0.76321 0.49279 0.10211 0.00000
Ca190 Ca 0.41309 0.32649 0.87790 0.00000
Ca191 Ca 0.54407 0.29273 0.84869 0.00000
O192 O 0.59989 0.34743 0.80736 0.00000
O193 O 0.55215 0.29720 0.78548 0.00000
C194 C 0.58004 0.32915 0.78239 0.00000
O195 O 0.57015 0.33565 0.89747 0.00000
O196 O 0.53807 0.38736 0.93287 0.00000
C197 C 0.56158 0.35173 0.92689 0.00000
O198 O 0.48468 0.34902 0.84274 0.00000
O199 O 0.44509 0.40786 0.86280 0.00000
O200 O 0.33685 0.34231 0.90162 0.00000
O201 O 0.36516 0.28134 0.92761 0.00000
O202 O 0.61852 0.26133 0.85191 0.00000
O203 O 0.53518 0.23117 0.89403 0.00000
O204 O 0.47187 0.27103 0.88529 0.00000
C205 C 0.47710 0.39196 0.84522 0.00000
C206 C 0.33309 0.30837 0.92192 0.00000
C207 C 0.65895 0.25054 0.84737 0.00000
C208 C 0.49279 0.23679 0.89789 0.00000
Ca209 Ca 0.82649 0.41309 0.62790 0.00000
Ca210 Ca 0.79274 0.54407 0.59869 0.00000
O211 O 0.84744 0.59989 0.55736 0.00000
O212 O 0.79721 0.55215 0.53547 0.00000
C213 C 0.82916 0.58004 0.53239 0.00000
O214 O 0.83566 0.57015 0.64747 0.00000
O215 O 0.88737 0.53807 0.68287 0.00000
C216 C 0.85174 0.56158 0.67689 0.00000
O217 O 0.84903 0.48468 0.59273 0.00000
O218 O 0.90786 0.44509 0.61280 0.00000
O219 O 0.84231 0.33685 0.65162 0.00000
O220 O 0.78135 0.36516 0.67761 0.00000
O221 O 0.76134 0.61852 0.60191 0.00000
O222 O 0.73118 0.53518 0.64402 0.00000
O223 O 0.77104 0.47187 0.63529 0.00000
C224 C 0.89197 0.47710 0.59522 0.00000
C225 C 0.80838 0.33309 0.67192 0.00000
C226 C 0.75055 0.65895 0.59736 0.00000
C227 C 0.73680 0.49280 0.64788 0.00000
Ca228 Ca 0.41309 0.17351 0.37210 0.00000
Ca229 Ca 0.54407 0.20726 0.40131 0.00000
O230 O 0.59989 0.15256 0.44264 0.00000
O231 O 0.55215 0.20279 0.46453 0.00000
C232 C 0.58004 0.17084 0.46761 0.00000
O233 O 0.57015 0.16434 0.35253 0.00000
O234 O 0.53807 0.11263 0.31713 0.00000
C235 C 0.56158 0.14826 0.32311 0.00000
O236 O 0.48468 0.15097 0.40727 0.00000
O237 O 0.44509 0.09214 0.38720 0.00000
O238 O 0.33685 0.15769 0.34838 0.00000
O239 O 0.36516 0.21865 0.32239 0.00000
O240 O 0.61852 0.23866 0.39809 0.00000
O241 O 0.53518 0.26882 0.35598 0.00000
O242 O 0.47187 0.22896 0.36471 0.00000
C243 C 0.47710 0.10803 0.40478 0.00000
C244 C 0.33309 0.19162 0.32808 0.00000
C245 C 0.65895 0.24945 0.40264 0.00000
C246 C 0.49280 0.26320 0.35212 0.00000
Ca247 Ca 0.08688 0.17353 0.37791 0.00000
Ca248 Ca 0.95589 0.20727 0.34870 0.00000
O249 O 0.90008 0.15257 0.30737 0.00000
O250 O 0.94781 0.20280 0.28548 0.00000
C251 C 0.91992 0.17085 0.28240 0.00000
O252 O 0.92982 0.16435 0.39748 0.00000
O253 O 0.96190 0.11264 0.43288 0.00000
C254 C 0.93839 0.14827 0.42690 0.00000
O255 O 0.01529 0.15099 0.34274 0.00000
O256 O 0.05488 0.09215 0.36281 0.00000
O257 O 0.16312 0.15771 0.40163 0.00000
O258 O 0.13481 0.21867 0.42762 0.00000
O259 O 0.88144 0.23867 0.35192 0.00000
O260 O 0.96478 0.26883 0.39404 0.00000
O261 O 0.02810 0.22898 0.38530 0.00000
C262 C 0.02287 0.10804 0.34522 0.00000
C263 C 0.16688 0.19164 0.42192 0.00000
C264 C 0.84102 0.24945 0.34738 0.00000
C265 C 0.00717 0.26321 0.39789 0.00000
Ca266 Ca 0.17353 0.91312 0.62209 0.00000
Ca267 Ca 0.20727 0.04411 0.65130 0.00000
O268 O 0.15257 0.09992 0.69263 0.00000
O269 O 0.20280 0.05219 0.71452 0.00000
C270 C 0.17085 0.08008 0.71760 0.00000
O271 O 0.16435 0.07018 0.60252 0.00000
O272 O 0.11264 0.03810 0.56712 0.00000
C273 C 0.14827 0.06161 0.57310 0.00000
O274 O 0.15099 0.98471 0.65726 0.00000
O275 O 0.09215 0.94512 0.63719 0.00000
O276 O 0.15771 0.83688 0.59837 0.00000
O277 O 0.21867 0.86519 0.57238 0.00000
O278 O 0.23867 0.11856 0.64808 0.00000
O279 O 0.26883 0.03522 0.60596 0.00000
O280 O 0.22898 0.97190 0.61470 0.00000
C281 C 0.10804 0.97713 0.65478 0.00000
C282 C 0.19164 0.83312 0.57808 0.00000
C283 C 0.24945 0.15898 0.65262 0.00000
C284 C 0.26321 0.99283 0.60211 0.00000
Ca285 Ca 0.91312 0.82647 0.37791 0.00000
Ca286 Ca 0.04411 0.79273 0.34870 0.00000
O287 O 0.09992 0.84743 0.30737 0.00000
O288 O 0.05219 0.79720 0.28548 0.00000
C289 C 0.08008 0.82915 0.28240 0.00000
O290 O 0.07018 0.83565 0.39748 0.00000
O291 O 0.03810 0.88736 0.43288 0.00000
C292 C 0.06161 0.85173 0.42690 0.00000
O293 O 0.98471 0.84901 0.34274 0.00000
O294 O 0.94512 0.90785 0.36281 0.00000
O295 O 0.83688 0.84229 0.40163 0.00000
O296 O 0.86519 0.78133 0.42762 0.00000
O297 O 0.11856 0.76133 0.35192 0.00000
O298 O 0.03522 0.73117 0.39404 0.00000
O299 O 0.97190 0.77102 0.38530 0.00000
C300 C 0.97713 0.89196 0.34522 0.00000
C301 C 0.83312 0.80836 0.42192 0.00000
C302 C 0.15898 0.75055 0.34737 0.00000
C303 C 0.99283 0.73679 0.39789 0.00000
H304 H 0.27478 0.53739 0.69989 0.00000
C305 C 0.37699 0.57339 0.70175 0.00000
H306 H 0.27823 0.61064 0.72394 0.00000
C307 C 0.33788 0.64025 0.74150 0.00000
H308 H 0.43503 0.60233 0.71982 0.00000
H309 H 0.39114 0.55256 0.68677 0.00000
H310 H 0.32368 0.66407 0.75364 0.00000
C311 C 0.33082 0.57403 0.70507 0.00000
C312 C 0.31011 0.60825 0.72339 0.00000
N313 N 0.30050 0.54155 0.68920 0.00000
C314 C 0.38417 0.63754 0.74190 0.00000
C315 C 0.40319 0.60436 0.72109 0.00000
H316 H 0.51104 0.69558 0.30191 0.00000
C317 C 0.61632 0.67132 0.29532 0.00000
H318 H 0.52078 0.62068 0.28219 0.00000
C319 C 0.58156 0.59609 0.26250 0.00000
H320 H 0.67538 0.64714 0.27520 0.00000
H321 H 0.62937 0.69527 0.30800 0.00000
H322 H 0.56912 0.56950 0.25283 0.00000
C323 C 0.57037 0.66507 0.29518 0.00000
C324 C 0.55210 0.62672 0.28044 0.00000
N325 N 0.53810 0.69562 0.31104 0.00000
C326 C 0.62700 0.60398 0.25882 0.00000
C327 C 0.64398 0.64139 0.27620 0.00000
H328 H 0.57364 0.10982 0.49989 0.00000
C329 C 0.67668 0.10338 0.52502 0.00000
H330 H 0.57819 0.07571 0.55475 0.00000
C331 C 0.63794 0.05004 0.57542 0.00000
H332 H 0.73479 0.07711 0.54521 0.00000
H333 H 0.69080 0.12336 0.50937 0.00000
H334 H 0.62396 0.03369 0.59344 0.00000
C335 C 0.63044 0.10026 0.52639 0.00000
C336 C 0.61000 0.07564 0.55227 0.00000
N337 N 0.59984 0.12301 0.50285 0.00000
C338 C 0.68411 0.04834 0.57235 0.00000
C339 C 0.70299 0.07624 0.54739 0.00000
H340 H 0.07457 0.21432 0.83870 0.00000
C341 C 0.06803 0.12459 0.79268 0.00000
H342 H 0.12661 0.21710 0.79264 0.00000
C343 C 0.14558 0.16058 0.76403 0.00000
H344 H 0.08772 0.06927 0.76500 0.00000
H345 H 0.04031 0.11246 0.80051 0.00000
H346 H 0.17081 0.17436 0.75336 0.00000
C347 C 0.08146 0.16701 0.80264 0.00000
C348 C 0.11883 0.18680 0.78759 0.00000
N349 N 0.05778 0.19474 0.82765 0.00000
C350 C 0.13599 0.11630 0.75648 0.00000
C351 C 0.09626 0.09920 0.77049 0.00000
H352 H 0.07206 0.63966 0.02525 0.00000
C353 C 0.15764 0.57421 0.01625 0.00000
H354 H 0.11619 0.63851 0.07591 0.00000
C355 C 0.16477 0.58928 0.08624 0.00000
H356 H 0.20455 0.52555 0.02705 0.00000
H357 H 0.15778 0.57022 0.99211 0.00000
H358 H 0.16809 0.59650 0.10983 0.00000
C359 C 0.12933 0.60523 0.03125 0.00000
C360 C 0.13351 0.61510 0.06585 0.00000
N361 N 0.09519 0.63093 0.01287 0.00000
C362 C 0.18992 0.55453 0.07282 0.00000
C363 C 0.18665 0.54822 0.03744 0.00000
H364 H 0.86325 0.87106 0.72855 0.00000
C365 C 0.92390 0.87939 0.79666 0.00000
H366 H 0.86572 0.80149 0.75832 0.00000
C367 C 0.91322 0.78660 0.79631 0.00000
H368 H 0.97095 0.86399 0.83333 0.00000
H369 H 0.92626 0.91115 0.79871 0.00000
H370 H 0.90745 0.75515 0.79680 0.00000
C371 C 0.89530 0.86047 0.77288 0.00000
C372 C 0.88757 0.81443 0.77311 0.00000
N373 N 0.87004 0.88590 0.74735 0.00000
C374 C 0.94580 0.80388 0.81772 0.00000
C375 C 0.94987 0.85070 0.81811 0.00000
H376 H 0.81771 0.00734 0.19073 0.00000
C377 C 0.85603 0.10871 0.18951 0.00000
H378 H 0.82629 0.03552 0.24724 0.00000
C379 C 0.86474 0.09244 0.25923 0.00000
H380 H 0.89449 0.16380 0.20170 0.00000
H381 H 0.85128 0.11642 0.16617 0.00000
H382 H 0.86547 0.08719 0.28325 0.00000
C383 C 0.83879 0.06929 0.20269 0.00000
C384 C 0.84067 0.06116 0.23766 0.00000
N385 N 0.81620 0.03480 0.18241 0.00000
C386 C 0.88675 0.12957 0.24633 0.00000
C387 C 0.88104 0.13774 0.21135 0.00000
H388 H 0.16897 0.95846 0.15267 0.00000
C389 C 0.17892 0.89240 0.21766 0.00000
H390 H 0.10170 0.95745 0.18541 0.00000
C391 C 0.08701 0.90800 0.22197 0.00000
H392 H 0.16365 0.84353 0.25296 0.00000
H393 H 0.21060 0.88821 0.21816 0.00000
H394 H 0.05601 0.91539 0.22413 0.00000
C395 C 0.15991 0.92371 0.19601 0.00000
C396 C 0.11447 0.93385 0.19865 0.00000
N397 N 0.18478 0.94948 0.17045 0.00000
C398 C 0.10399 0.87299 0.24118 0.00000
C399 C 0.15046 0.86641 0.23926 0.00000
H400 H 0.56734 0.80625 0.90113 0.00000
C401 C 0.56196 0.86497 0.97038 0.00000
H402 H 0.63779 0.80675 0.92973 0.00000
C403 C 0.65454 0.85288 0.96824 0.00000
H404 H 0.57917 0.91068 0.00756 0.00000
H405 H 0.53031 0.86775 0.97301 0.00000
H406 H 0.68590 0.84661 0.96809 0.00000
C407 C 0.57973 0.83680 0.94580 0.00000
C408 C 0.62563 0.82836 0.94510 0.00000
N409 N 0.55316 0.81270 0.92029 0.00000
C410 C 0.63841 0.88507 0.99050 0.00000
C411 C 0.59168 0.88986 0.99176 0.00000
H412 H 0.77122 0.43062 0.07322 0.00000
C413 C 0.85944 0.43772 0.02557 0.00000
H414 H 0.81293 0.36257 0.07480 0.00000
C415 C 0.86269 0.34604 0.03894 0.00000
H416 H 0.90750 0.42064 0.99011 0.00000
H417 H 0.86088 0.46929 0.02195 0.00000
H418 H 0.86463 0.31515 0.04510 0.00000
C419 C 0.82936 0.41984 0.04875 0.00000
C420 C 0.83154 0.37456 0.05722 0.00000
N421 N 0.79523 0.44582 0.06691 0.00000
C422 C 0.88968 0.36186 0.01288 0.00000
C423 C 0.88833 0.40823 0.00712 0.00000
H424 H 0.34507 0.13601 0.01226 0.00000
C425 C 0.43340 0.12579 0.96506 0.00000
H426 H 0.34409 0.18910 0.96685 0.00000
C427 C 0.40094 0.20571 0.93778 0.00000
H428 H 0.48911 0.14316 0.93694 0.00000
H429 H 0.44422 0.09731 0.97242 0.00000
H430 H 0.38828 0.23184 0.92757 0.00000
C431 C 0.39194 0.14119 0.97571 0.00000
C432 C 0.37383 0.17986 0.96134 0.00000
N433 N 0.36352 0.11846 0.00010 0.00000
C434 C 0.44450 0.19398 0.92957 0.00000
C435 C 0.45978 0.15312 0.94290 0.00000
H436 H 0.62403 0.32607 0.73754 0.00000
C437 C 0.62081 0.42550 0.70479 0.00000
H438 H 0.69739 0.35726 0.73397 0.00000
C439 C 0.71338 0.41313 0.70362 0.00000
H440 H 0.63714 0.47955 0.67451 0.00000
H441 H 0.58959 0.43198 0.70649 0.00000
H442 H 0.74510 0.40932 0.70493 0.00000
C443 C 0.63852 0.38771 0.72019 0.00000
C444 C 0.68477 0.38164 0.72148 0.00000
N445 N 0.61185 0.35303 0.73713 0.00000
C446 C 0.69647 0.44845 0.68470 0.00000
C447 C 0.64994 0.45472 0.68631 0.00000
H448 H 0.48004 0.29026 0.29808 0.00000
C449 C 0.38320 0.33844 0.30331 0.00000
H450 H 0.47893 0.35776 0.26561 0.00000
C451 C 0.41964 0.39105 0.25151 0.00000
H452 H 0.32530 0.37077 0.28862 0.00000
H453 H 0.37049 0.32282 0.32221 0.00000
H454 H 0.43333 0.41016 0.23499 0.00000
C455 C 0.42778 0.33242 0.29472 0.00000
C456 C 0.44756 0.35966 0.27009 0.00000
N457 N 0.45765 0.29978 0.31090 0.00000
C458 C 0.37390 0.39432 0.25676 0.00000
C459 C 0.35643 0.36838 0.28348 0.00000
H460 H 0.13161 0.43116 0.47874 0.00000
C461 C 0.11528 0.32595 0.46329 0.00000
H462 H 0.05488 0.41722 0.46569 0.00000
C463 C 0.03206 0.35809 0.44223 0.00000
H464 H 0.09265 0.26863 0.43955 0.00000
H465 H 0.14237 0.31339 0.47197 0.00000
H466 H 0.00299 0.36927 0.43669 0.00000
C467 C 0.10524 0.37066 0.46873 0.00000
C468 C 0.06314 0.38725 0.46000 0.00000
N469 N 0.13562 0.40294 0.48477 0.00000
C470 C 0.04296 0.31470 0.43293 0.00000
C471 C 0.08452 0.29884 0.44449 0.00000
H472 H 0.42923 0.88746 0.50433 0.00000
C473 C 0.32430 0.90100 0.52225 0.00000
H474 H 0.42025 0.91513 0.56095 0.00000
C475 C 0.36052 0.94398 0.57905 0.00000
H476 H 0.26631 0.93033 0.54004 0.00000
H477 H 0.31067 0.88447 0.50419 0.00000
H478 H 0.37336 0.95664 0.59917 0.00000
C479 C 0.37020 0.89936 0.52719 0.00000
C480 C 0.38909 0.91864 0.55619 0.00000
N481 N 0.40170 0.87662 0.50435 0.00000
C482 C 0.31535 0.95059 0.57280 0.00000
C483 C 0.29759 0.92779 0.54457 0.00000
H484 H 0.92592 0.71047 0.40869 0.00000
C485 C 0.93396 0.62595 0.45998 0.00000
H486 H 0.86952 0.71380 0.45165 0.00000
C487 C 0.85164 0.65886 0.48238 0.00000
H488 H 0.91537 0.57207 0.48968 0.00000
H489 H 0.96311 0.61513 0.45433 0.00000
H490 H 0.82460 0.67176 0.49090 0.00000
C491 C 0.91874 0.66626 0.44693 0.00000
C492 C 0.87879 0.68468 0.45882 0.00000
N493 N 0.94287 0.69323 0.42168 0.00000
C494 C 0.86341 0.61620 0.49294 0.00000
C495 C 0.90542 0.60072 0.48205 0.00000
H496 H 0.29814 0.16600 0.64245 0.00000
C497 C 0.22974 0.24623 0.62332 0.00000
H498 H 0.33741 0.23498 0.63584 0.00000
C499 C 0.30995 0.29161 0.61170 0.00000
H500 H 0.20361 0.30159 0.59898 0.00000
H501 H 0.20171 0.23267 0.62881 0.00000
H502 H 0.33762 0.30736 0.60944 0.00000
C503 C 0.26959 0.22533 0.63189 0.00000
C504 C 0.31009 0.24795 0.62793 0.00000
N505 N 0.27286 0.18035 0.64664 0.00000
C506 C 0.27123 0.31127 0.59930 0.00000
C507 C 0.23115 0.28842 0.60614 0.00000
H508 H 0.18801 0.77402 0.33017 0.00000
C509 C 0.23170 0.72259 0.39476 0.00000
H510 H 0.26724 0.76838 0.32402 0.00000
C511 C 0.31071 0.75270 0.36453 0.00000
H512 H 0.27474 0.70834 0.43443 0.00000
H513 H 0.20564 0.70964 0.40482 0.00000
H514 H 0.33754 0.76133 0.35302 0.00000
C515 C 0.22927 0.74331 0.36322 0.00000
C516 C 0.26834 0.75678 0.34670 0.00000
N517 N 0.18762 0.75099 0.34432 0.00000
C518 C 0.31373 0.73684 0.39764 0.00000
C519 C 0.27379 0.72086 0.41206 0.00000
H520 H 0.72333 0.65778 0.61771 0.00000
C521 C 0.76571 0.75733 0.61281 0.00000
H522 H 0.67475 0.71145 0.64337 0.00000
C523 C 0.69518 0.77643 0.65713 0.00000
H524 H 0.78561 0.82072 0.62718 0.00000
H525 H 0.78868 0.75266 0.59627 0.00000
H526 H 0.66963 0.78290 0.67093 0.00000
C527 C 0.73465 0.72407 0.61962 0.00000
C528 C 0.69784 0.73321 0.64035 0.00000
N529 N 0.73622 0.67879 0.60525 0.00000
C530 C 0.72831 0.80862 0.65395 0.00000
C531 C 0.76291 0.79879 0.63091 0.00000
H532 H 0.83350 0.20116 0.89309 0.00000
C533 C 0.73436 0.24459 0.89748 0.00000
H534 H 0.80392 0.21396 0.83746 0.00000
C535 C 0.73567 0.22607 0.82778 0.00000
H536 H 0.66740 0.25540 0.88757 0.00000
H537 H 0.73358 0.25368 0.92081 0.00000
H538 H 0.73745 0.22157 0.80370 0.00000
C539 C 0.77377 0.22921 0.88302 0.00000
C540 C 0.77614 0.22171 0.84798 0.00000
N541 N 0.81542 0.22153 0.90191 0.00000
C542 C 0.69455 0.23644 0.84207 0.00000
C543 C 0.69483 0.24669 0.87700 0.00000
H544 H 0.27670 0.31594 0.16496 0.00000
C545 C 0.20552 0.24347 0.13618 0.00000
H546 H 0.30299 0.28322 0.11324 0.00000
C547 C 0.27647 0.22396 0.09237 0.00000
H548 H 0.18056 0.18483 0.11591 0.00000
H549 H 0.17971 0.25081 0.14940 0.00000
H550 H 0.30023 0.21916 0.07648 0.00000
C551 C 0.24315 0.27054 0.13706 0.00000
C552 C 0.27827 0.26300 0.11436 0.00000
N553 N 0.24872 0.30911 0.15978 0.00000
C554 C 0.24167 0.19335 0.09359 0.00000
C555 C 0.20583 0.20435 0.11518 0.00000
H556 H 0.15678 0.76354 0.88099 0.00000
C557 C 0.26150 0.78719 0.89233 0.00000
H558 H 0.20302 0.71731 0.84610 0.00000
C559 C 0.27070 0.73141 0.83571 0.00000
H560 H 0.32754 0.80122 0.88128 0.00000
H561 H 0.25998 0.80442 0.91279 0.00000
H562 H 0.27355 0.71053 0.81739 0.00000
C563 C 0.22405 0.76483 0.88031 0.00000
C564 C 0.22798 0.73505 0.85310 0.00000
N565 N 0.17919 0.76855 0.89520 0.00000
C566 C 0.30750 0.75710 0.84463 0.00000
C567 C 0.30249 0.78410 0.87367 0.00000
H568 H 0.80075 0.81079 0.07866 0.00000
C569 C 0.75251 0.76872 0.14526 0.00000
H570 H 0.79211 0.73179 0.07279 0.00000
C571 C 0.77787 0.68880 0.11391 0.00000
H572 H 0.73965 0.72611 0.18548 0.00000
H573 H 0.74114 0.79517 0.15582 0.00000
H574 H 0.78481 0.66172 0.10207 0.00000
C575 C 0.77107 0.77051 0.11292 0.00000
C576 C 0.78208 0.73104 0.09590 0.00000
N577 N 0.77876 0.81191 0.09372 0.00000
C578 C 0.76426 0.68626 0.14761 0.00000
C579 C 0.75062 0.72668 0.16264 0.00000
H580 H 0.65720 0.27237 0.38156 0.00000
C581 C 0.76373 0.28130 0.39515 0.00000
H582 H 0.69853 0.23033 0.34056 0.00000
C583 C 0.76748 0.23913 0.33175 0.00000
H584 H 0.83106 0.29037 0.38569 0.00000
H585 H 0.76385 0.29348 0.41765 0.00000
H586 H 0.76825 0.22273 0.31084 0.00000
C587 C 0.72421 0.26640 0.38055 0.00000
C588 C 0.72519 0.24328 0.34968 0.00000
N589 N 0.67984 0.27145 0.39605 0.00000
C590 C 0.80676 0.25809 0.34375 0.00000
C591 C 0.80438 0.27818 0.37605 0.00000
H592 H 0.07252 0.62536 0.78498 0.00000
C593 C 0.12529 0.70585 0.74702 0.00000
H594 H 0.13893 0.59822 0.75830 0.00000
C595 C 0.17448 0.63421 0.72094 0.00000
H596 H 0.15980 0.74031 0.70979 0.00000
H597 H 0.11089 0.73131 0.75682 0.00000
H598 H 0.19240 0.60956 0.71355 0.00000
C599 C 0.11693 0.66328 0.75953 0.00000
C600 C 0.14243 0.62711 0.74822 0.00000
N601 N 0.08347 0.65284 0.78568 0.00000
C602 C 0.18004 0.67534 0.70519 0.00000
C603 C 0.15579 0.71114 0.71923 0.00000
H604 H 0.70209 0.92500 0.20384 0.00000
C605 C 0.64253 0.87676 0.26220 0.00000
H606 H 0.73605 0.85661 0.22162 0.00000
C607 C 0.71854 0.82280 0.26677 0.00000
H608 H 0.62645 0.84388 0.30679 0.00000
H609 H 0.61507 0.89287 0.26011 0.00000
H610 H 0.74387 0.80326 0.26689 0.00000
C611 C 0.67648 0.88264 0.23855 0.00000
C612 C 0.71392 0.85476 0.23914 0.00000
N613 N 0.67559 0.91579 0.21100 0.00000
C614 C 0.68767 0.81957 0.29302 0.00000
C615 C 0.64918 0.84621 0.28979 0.00000
H616 H 0.89841 0.19662 0.43964 0.00000
C617 C 0.85889 0.13884 0.50265 0.00000
H618 H 0.88867 0.24263 0.48877 0.00000
C619 C 0.84936 0.22398 0.53099 0.00000
H620 H 0.81959 0.12143 0.54381 0.00000
H621 H 0.86388 0.10909 0.49461 0.00000
H622 H 0.84834 0.25312 0.54101 0.00000
C623 C 0.87642 0.17519 0.48523 0.00000
C624 C 0.87412 0.21788 0.49950 0.00000
N625 N 0.89971 0.17227 0.45241 0.00000
C626 C 0.82709 0.18920 0.54705 0.00000
C627 C 0.83321 0.14649 0.53285 0.00000
H628 H 0.17893 0.38458 0.68411 0.00000
C629 C 0.18267 0.39327 0.76633 0.00000
H630 H 0.15223 0.31781 0.71053 0.00000
C631 C 0.16356 0.30200 0.76211 0.00000
H632 H 0.19449 0.37688 0.81662 0.00000
H633 H 0.18675 0.42479 0.76886 0.00000
H634 H 0.15486 0.27131 0.76031 0.00000
C635 C 0.17335 0.37499 0.73465 0.00000
C636 C 0.16156 0.32997 0.73190 0.00000
N637 N 0.17305 0.40034 0.70265 0.00000
C638 C 0.17768 0.31807 0.79344 0.00000
C639 C 0.18608 0.36426 0.79520 0.00000
H640 H 0.40860 0.70188 0.94466 0.00000
C641 C 0.35089 0.64221 0.99773 0.00000
H642 H 0.40622 0.73667 0.99990 0.00000
C643 C 0.36005 0.71901 0.03760 0.00000
H644 H 0.30511 0.62596 0.03511 0.00000
H645 H 0.34914 0.61452 0.98565 0.00000
H646 H 0.36533 0.74465 0.05159 0.00000
C647 C 0.37820 0.67642 0.98606 0.00000
C648 C 0.38519 0.71430 0.00615 0.00000
N649 N 0.40282 0.67542 0.95374 0.00000
C650 C 0.32864 0.68779 0.04809 0.00000
C651 C 0.32534 0.64892 0.02812 0.00000
H652 H 0.77767 0.69441 0.79389 0.00000
C653 C 0.85915 0.64809 0.75244 0.00000
H654 H 0.75437 0.62523 0.76925 0.00000
C655 C 0.79014 0.59214 0.73049 0.00000
H656 H 0.89332 0.61589 0.71387 0.00000
H657 H 0.88401 0.66492 0.76080 0.00000
H658 H 0.76661 0.57194 0.72451 0.00000
C659 C 0.81717 0.65293 0.76698 0.00000
C660 C 0.78254 0.62407 0.75776 0.00000
N661 N 0.80602 0.68595 0.79330 0.00000
C662 C 0.83017 0.58988 0.71274 0.00000
C663 C 0.86477 0.61752 0.72472 0.00000
H664 H 0.61887 0.14698 0.31374 0.00000
C665 C 0.60915 0.16022 0.23217 0.00000
H666 H 0.67782 0.19279 0.29219 0.00000
C667 C 0.69440 0.19693 0.24013 0.00000
H668 H 0.62644 0.16372 0.18132 0.00000
H669 H 0.57915 0.15019 0.22869 0.00000
H670 H 0.72260 0.21138 0.24348 0.00000
C671 C 0.62581 0.16585 0.26484 0.00000
C672 C 0.66738 0.18609 0.26975 0.00000
N673 N 0.60177 0.15352 0.29604 0.00000
C674 C 0.68092 0.18706 0.20719 0.00000
C675 C 0.63751 0.16962 0.20369 0.00000
H676 H 0.41045 0.87993 0.29387 0.00000
C677 C 0.38658 0.80213 0.23936 0.00000
H678 H 0.33485 0.88655 0.27496 0.00000
C679 C 0.30986 0.85432 0.23120 0.00000
H680 H 0.36197 0.77160 0.19607 0.00000
H681 H 0.41112 0.78215 0.24277 0.00000
H682 H 0.28282 0.87131 0.22990 0.00000
C683 C 0.38005 0.83814 0.26105 0.00000
C684 C 0.34101 0.86356 0.25871 0.00000
N685 N 0.41103 0.85128 0.28825 0.00000
C686 C 0.31787 0.82186 0.20673 0.00000
C687 C 0.35607 0.79528 0.21177 0.00000
H688 H 0.72152 0.69596 0.95687 0.00000
C689 C 0.64036 0.64685 0.99680 0.00000
H690 H 0.74653 0.62792 0.98237 0.00000
C691 C 0.71062 0.59378 0.02053 0.00000
H692 H 0.60603 0.61366 0.03479 0.00000
H693 H 0.61520 0.66264 0.98782 0.00000
H694 H 0.73468 0.57455 0.02711 0.00000
C695 C 0.68265 0.65320 0.98314 0.00000
C696 C 0.71801 0.62577 0.99325 0.00000
N697 N 0.69351 0.68641 0.95689 0.00000
C698 C 0.67006 0.59011 0.03741 0.00000
C699 C 0.63488 0.61631 0.02455 0.00000
H700 H 0.68055 0.27442 0.05125 0.00000
C701 C 0.62035 0.35266 0.01717 0.00000
H702 H 0.67894 0.26692 0.99073 0.00000
C703 C 0.63186 0.29941 0.95940 0.00000
H704 H 0.57372 0.38344 0.98627 0.00000
H705 H 0.61773 0.37296 0.03586 0.00000
H706 H 0.63792 0.28203 0.93948 0.00000
C707 C 0.64894 0.31622 0.01911 0.00000
C708 C 0.65708 0.29024 0.99024 0.00000
N709 N 0.67377 0.30316 0.04977 0.00000
C710 C 0.59929 0.33236 0.95774 0.00000
C711 C 0.59480 0.35945 0.98679 0.00000
H712 H 0.30100 0.28531 0.96451 0.00000
C713 C 0.35728 0.37371 0.98557 0.00000
H714 H 0.26137 0.32819 0.00598 0.00000
C715 C 0.29137 0.37847 0.03583 0.00000
H716 H 0.38654 0.42231 0.01557 0.00000
H717 H 0.37892 0.37462 0.96767 0.00000
H718 H 0.26737 0.38091 0.05183 0.00000
C719 C 0.32189 0.34379 0.98425 0.00000
C720 C 0.28730 0.34670 0.00802 0.00000
N721 N 0.31651 0.30908 0.95814 0.00000
C722 C 0.32874 0.40536 0.04011 0.00000
C723 C 0.36098 0.40324 0.01411 0.00000
H724 H 0.92285 0.29735 0.79743 0.00000
C725 C 0.84260 0.34869 0.75808 0.00000
H726 H 0.92486 0.28148 0.73787 0.00000
C727 C 0.87085 0.29380 0.70470 0.00000
H728 H 0.78952 0.35959 0.72547 0.00000
H729 H 0.83358 0.36971 0.77508 0.00000
H730 H 0.88229 0.27642 0.68620 0.00000
C731 C 0.88079 0.32305 0.76254 0.00000
C732 C 0.89700 0.29693 0.73579 0.00000
N733 N 0.90775 0.32235 0.79377 0.00000
C734 C 0.82990 0.31498 0.70085 0.00000
C735 C 0.81684 0.34328 0.72764 0.00000
H736 H 0.29809 0.09132 0.19471 0.00000
C737 C 0.34637 0.11246 0.26683 0.00000
H738 H 0.28624 0.16731 0.21105 0.00000
C739 C 0.29701 0.19137 0.26081 0.00000
H740 H 0.35575 0.13621 0.31569 0.00000
H741 H 0.36561 0.08708 0.26889 0.00000
H742 H 0.28166 0.21911 0.25760 0.00000
C743 C 0.32310 0.12028 0.23686 0.00000
C744 C 0.29989 0.16036 0.23242 0.00000
N745 N 0.32221 0.08960 0.20770 0.00000
C746 C 0.31561 0.18226 0.29241 0.00000
C747 C 0.34120 0.14294 0.29465 0.00000
H748 H 0.14244 0.18621 0.44132 0.00000
C749 C 0.19951 0.11683 0.48749 0.00000
H750 H 0.11666 0.18685 0.49886 0.00000
C751 C 0.13223 0.13652 0.53449 0.00000
H752 H 0.21362 0.06716 0.52242 0.00000
H753 H 0.22440 0.11115 0.47285 0.00000
H754 H 0.11024 0.14524 0.55089 0.00000
C755 C 0.16879 0.14997 0.47955 0.00000
C756 C 0.13609 0.16210 0.50318 0.00000
N757 N 0.16879 0.17570 0.44772 0.00000
C758 C 0.15914 0.09989 0.54150 0.00000
C759 C 0.19346 0.09123 0.51794 0.00000
H760 H 0.06877 0.80070 0.45770 0.00000
C761 C 0.16061 0.84083 0.48912 0.00000
H762 H 0.06759 0.79778 0.51845 0.00000
C763 C 0.12520 0.80469 0.54891 0.00000
H764 H 0.21697 0.84645 0.51921 0.00000
H765 H 0.17265 0.85574 0.46965 0.00000
H766 H 0.11167 0.79410 0.56945 0.00000
C767 C 0.11763 0.82343 0.48839 0.00000
C768 C 0.09818 0.80710 0.51822 0.00000
N769 N 0.08900 0.82229 0.45805 0.00000
C770 C 0.16988 0.81707 0.54954 0.00000
C771 C 0.18673 0.83617 0.51946 0.00000
H772 H 0.87665 0.89769 0.55143 0.00000
C773 C 0.79519 0.85955 0.50539 0.00000
H774 H 0.90004 0.88725 0.49385 0.00000
C775 C 0.86427 0.84848 0.45826 0.00000
H776 H 0.76103 0.82076 0.47051 0.00000
H777 H 0.77032 0.86508 0.52008 0.00000
H778 H 0.88782 0.84694 0.44182 0.00000
C779 C 0.83719 0.87629 0.51326 0.00000
C780 C 0.87186 0.87322 0.48957 0.00000
N781 N 0.84832 0.89950 0.54508 0.00000
C782 C 0.82422 0.82696 0.45132 0.00000
C783 C 0.78958 0.83385 0.47494 0.00000
H784 H 0.92010 0.45920 0.56225 0.00000
C785 C 0.99444 0.53400 0.58126 0.00000
H786 H 0.98729 0.42475 0.58200 0.00000
C787 C 0.04905 0.45841 0.58530 0.00000
H788 H 0.05539 0.56631 0.58382 0.00000
H789 H 0.97636 0.56034 0.58197 0.00000
H790 H 0.06680 0.43208 0.58823 0.00000
C791 C 0.97489 0.49214 0.57824 0.00000
C792 C 0.00010 0.45367 0.58179 0.00000
N793 N 0.92694 0.48444 0.57278 0.00000
C794 C 0.07026 0.49964 0.58451 0.00000
C795 C 0.04212 0.53726 0.58330 0.00000
H796 H 0.45528 0.07950 0.40170 0.00000
C797 C 0.53328 0.00548 0.41206 0.00000
H798 H 0.42565 0.01280 0.42635 0.00000
C799 C 0.45966 0.95108 0.42618 0.00000
H800 H 0.56578 0.94455 0.41132 0.00000
H801 H 0.55938 0.02355 0.40924 0.00000
H802 H 0.43434 0.93343 0.43259 0.00000
C803 C 0.49130 0.02503 0.41406 0.00000
C804 C 0.45416 0.99990 0.42270 0.00000
N805 N 0.48247 0.07285 0.40903 0.00000
C806 C 0.50019 0.92980 0.42052 0.00000
C807 C 0.53700 0.95785 0.41427 0.00000
H808 H 0.92018 0.04169 0.64822 0.00000
C809 C 0.99727 0.99370 0.69328 0.00000
H810 H 0.98164 0.01978 0.61318 0.00000
C811 C 0.04509 0.00268 0.63256 0.00000
H812 H 0.05990 0.97794 0.71190 0.00000
H813 H 0.98126 0.98782 0.71386 0.00000
H814 H 0.06028 0.00397 0.61116 0.00000
C815 C 0.97502 0.00918 0.66462 0.00000
C816 C 0.99742 0.01198 0.63351 0.00000
N817 N 0.92756 0.02167 0.66383 0.00000
C818 C 0.06941 0.99207 0.66152 0.00000
C819 C 0.04456 0.98666 0.69162 0.00000
H820 H 0.01063 0.58514 0.94595 0.00000
C821 C 0.96780 0.49882 0.90817 0.00000
H822 H 0.06482 0.52696 0.94034 0.00000
C823 C 0.04827 0.46009 0.92902 0.00000
H824 H 0.95193 0.43296 0.89792 0.00000
H825 H 0.94106 0.51150 0.89899 0.00000
H826 H 0.07685 0.44794 0.93486 0.00000
C827 C 0.00010 0.52591 0.92300 0.00000
C828 C 0.04140 0.50801 0.93219 0.00000
N829 N 0.99481 0.57411 0.92886 0.00000
C830 C 0.01496 0.43130 0.91792 0.00000
C831 C 0.97515 0.45156 0.90678 0.00000
H832 H 0.41287 0.46981 0.17959 0.00000
C833 C 0.49946 0.51524 0.14399 0.00000
H834 H 0.47621 0.46646 0.21651 0.00000
C835 C 0.54244 0.47666 0.19989 0.00000
H836 H 0.56460 0.52408 0.12786 0.00000
H837 H 0.48565 0.53097 0.12560 0.00000
H838 H 0.55633 0.46516 0.22000 0.00000
C839 C 0.47360 0.49527 0.16906 0.00000
C840 C 0.49392 0.47762 0.19810 0.00000
N841 N 0.42461 0.49259 0.16831 0.00000
C842 C 0.56938 0.49172 0.17353 0.00000
C843 C 0.54714 0.51198 0.14603 0.00000
H844 H 0.41287 0.03021 0.07044 0.00000
C845 C 0.49946 0.98474 0.10601 0.00000
H846 H 0.47621 0.03359 0.03352 0.00000
C847 C 0.54244 0.02336 0.05013 0.00000
H848 H 0.56460 0.97587 0.12213 0.00000
H849 H 0.48565 0.96899 0.12439 0.00000
H850 H 0.55633 0.03489 0.03002 0.00000
C851 C 0.47360 0.00474 0.08095 0.00000
C852 C 0.49392 0.02241 0.05192 0.00000
N853 N 0.42461 0.00742 0.08170 0.00000
C854 C 0.56938 0.00827 0.07648 0.00000
C855 C 0.54714 0.98799 0.10396 0.00000
H856 H 0.47477 0.41851 0.86171 0.00000
C857 C 0.53096 0.49476 0.82159 0.00000
H858 H 0.43305 0.48645 0.85837 0.00000
C859 C 0.46177 0.54871 0.84599 0.00000
H860 H 0.55890 0.55615 0.81030 0.00000
H861 H 0.55381 0.47702 0.81123 0.00000
H862 H 0.43675 0.56632 0.85309 0.00000
C863 C 0.49522 0.47457 0.83803 0.00000
C864 C 0.45910 0.50036 0.84905 0.00000
N865 N 0.49108 0.42627 0.84386 0.00000
C866 C 0.49923 0.57030 0.83321 0.00000
C867 C 0.53317 0.54254 0.82032 0.00000
H868 H 0.96265 0.91974 0.35551 0.00000
C869 C 0.03394 0.99446 0.33047 0.00000
H870 H 0.92536 0.98721 0.33969 0.00000
C871 C 0.95828 0.04905 0.33390 0.00000
H872 H 0.06564 0.05548 0.32553 0.00000
H873 H 0.05996 0.97641 0.32718 0.00000
H874 H 0.93169 0.06682 0.33357 0.00000
C875 C 0.99285 0.97481 0.33712 0.00000
C876 C 0.95411 0.00010 0.33737 0.00000
N877 N 0.98605 0.92678 0.34280 0.00000
C878 C 0.99990 0.07028 0.33110 0.00000
C879 C 0.03687 0.04217 0.32859 0.00000
loop_
_geom_bond_atom_site_label_1
_geom_bond_atom_site_label_2
_geom_bond_distance
_geom_bond_site_symmetry_2
_ccdc_geom_bond_type
Ca0 O8 2.562 . S
Ca0 O9 2.606 . S
Ca0 O10 2.438 . S
Ca0 O11 2.696 . S
Ca0 O14 2.366 . S
Ca1 O2 2.766 . S
Ca1 O3 2.428 . S
Ca1 O5 2.366 . S
Ca1 O8 2.390 . S
Ca1 O12 2.352 . S
Ca1 O13 2.503 . S
Ca1 O14 2.599 . S
O2 C4 1.234 . A
O3 C4 1.239 . A
O5 C7 1.242 . S
O6 C7 1.262 . D
O8 C15 1.271 . S
O9 C15 1.237 . D
O10 C16 1.259 . A
O11 C16 1.239 . A
O12 C17 1.229 . T
O13 C18 1.252 . D
O14 C18 1.262 . S
Ca19 O27 2.562 . S
Ca19 O28 2.606 . S
Ca19 O29 2.438 . S
Ca19 O30 2.696 . S
Ca19 O33 2.366 . S
Ca20 O21 2.766 . S
Ca20 O22 2.428 . S
Ca20 O24 2.366 . S
Ca20 O27 2.390 . S
Ca20 O31 2.352 . S
Ca20 O32 2.503 . S
Ca20 O33 2.599 . S
O21 C23 1.234 . A
O22 C23 1.239 . A
O24 C26 1.242 . S
O25 C26 1.262 . D
O27 C34 1.271 . S
O28 C34 1.237 . D
O29 C35 1.259 . A
O30 C35 1.239 . A
O31 C36 1.229 . T
O32 C37 1.252 . D
O33 C37 1.262 . S
Ca38 O46 2.562 . S
Ca38 O47 2.606 . S
Ca38 O48 2.438 . S
Ca38 O49 2.696 . S
Ca38 O52 2.366 . S
Ca39 O40 2.766 . S
Ca39 O41 2.428 . S
Ca39 O43 2.366 . S
Ca39 O46 2.390 1_565 S
Ca39 O50 2.352 . S
Ca39 O51 2.503 . S
Ca39 O52 2.599 1_565 S
O40 C42 1.234 . A
O41 C42 1.239 . A
O43 C45 1.242 . S
O44 C45 1.262 . D
O46 C53 1.271 . S
O47 C53 1.237 . D
O48 C54 1.259 . A
O49 C54 1.239 . A
O50 C55 1.229 . T
O51 C56 1.252 1_565 D
O52 C56 1.262 . S
Ca57 O65 2.562 . S
Ca57 O66 2.606 . S
Ca57 O67 2.438 . S
Ca57 O68 2.696 . S
Ca57 O71 2.366 . S
Ca58 O59 2.766 . S
Ca58 O60 2.428 . S
Ca58 O62 2.366 . S
Ca58 O65 2.390 1_655 S
Ca58 O69 2.352 . S
Ca58 O70 2.503 . S
Ca58 O71 2.599 1_655 S
O59 C61 1.234 . A
O60 C61 1.239 . A
O62 C64 1.242 . S
O63 C64 1.262 . D
O65 C72 1.271 . S
O66 C72 1.237 . D
O67 C73 1.259 . A
O68 C73 1.239 . A
O69 C74 1.229 . T
O70 C75 1.252 1_655 D
O71 C75 1.262 . S
Ca76 O84 2.562 . S
Ca76 O85 2.606 . S
Ca76 O86 2.438 . S
Ca76 O87 2.696 . S
Ca76 O90 2.366 . S
Ca77 O78 2.766 . S
Ca77 O79 2.428 . S
Ca77 O81 2.366 . S
Ca77 O84 2.390 . S
Ca77 O88 2.352 . S
Ca77 O89 2.503 . S
Ca77 O90 2.599 . S
O78 C80 1.234 . A
O79 C80 1.239 . A
O81 C83 1.242 . S
O82 C83 1.262 . D
O84 C91 1.271 . S
O85 C91 1.237 . D
O86 C92 1.259 . A
O87 C92 1.239 . A
O88 C93 1.229 . T
O89 C94 1.252 . D
O90 C94 1.262 . S
Ca95 O103 2.562 . S
Ca95 O104 2.606 . S
Ca95 O105 2.438 . S
Ca95 O106 2.696 . S
Ca95 O109 2.366 . S
Ca96 O97 2.766 . S
Ca96 O98 2.428 . S
Ca96 O100 2.366 . S
Ca96 O103 2.390 1_455 S
Ca96 O107 2.352 . S
Ca96 O108 2.503 . S
Ca96 O109 2.599 1_455 S
O97 C99 1.234 . A
O98 C99 1.239 . A
O100 C102 1.242 . S
O101 C102 1.262 . D
O103 C110 1.271 . S
O104 C110 1.237 . D
O105 C111 1.259 . A
O106 C111 1.239 . A
O107 C112 1.229 . T
O108 C113 1.252 1_455 D
O109 C113 1.262 . S
Ca114 O122 2.562 . S
Ca114 O123 2.606 . S
Ca114 O124 2.438 . S
Ca114 O125 2.696 . S
Ca114 O128 2.366 . S
Ca115 O116 2.766 . S
Ca115 O117 2.428 . S
Ca115 O119 2.366 . S
Ca115 O122 2.390 1_565 S
Ca115 O126 2.352 . S
Ca115 O127 2.503 . S
Ca115 O128 2.599 1_565 S
O116 C118 1.234 . A
O117 C118 1.239 . A
O119 C121 1.242 . S
O120 C121 1.262 . D
O122 C129 1.271 . S
O123 C129 1.237 . D
O124 C130 1.259 . A
O125 C130 1.239 . A
O126 C131 1.229 . T
O127 C132 1.252 1_565 D
O128 C132 1.262 . S
Ca133 O141 2.562 . S
Ca133 O142 2.606 . S
Ca133 O143 2.438 . S
Ca133 O144 2.696 . S
Ca133 O147 2.366 . S
Ca134 O135 2.766 . S
Ca134 O136 2.428 . S
Ca134 O138 2.366 . S
Ca134 O141 2.390 1_545 S
Ca134 O145 2.352 . S
Ca134 O146 2.503 . S
Ca134 O147 2.599 1_545 S
O135 C137 1.234 . A
O136 C137 1.239 . A
O138 C140 1.242 . S
O139 C140 1.262 . D
O141 C148 1.271 . S
O142 C148 1.237 . D
O143 C149 1.259 . A
O144 C149 1.239 . A
O145 C150 1.229 . T
O146 C151 1.252 1_545 D
O147 C151 1.262 . S
Ca152 O160 2.562 . S
Ca152 O161 2.606 . S
Ca152 O162 2.438 . S
Ca152 O163 2.696 . S
Ca152 O166 2.366 . S
Ca153 O154 2.766 . S
Ca153 O155 2.428 . S
Ca153 O157 2.366 . S
Ca153 O160 2.390 . S
Ca153 O164 2.352 . S
Ca153 O165 2.503 . S
Ca153 O166 2.599 . S
O154 C156 1.234 . A
O155 C156 1.239 . A
O157 C159 1.242 . S
O158 C159 1.262 . D
O160 C167 1.271 . S
O161 C167 1.237 . D
O162 C168 1.259 . A
O163 C168 1.239 . A
O164 C169 1.229 . T
O165 C170 1.252 . D
O166 C170 1.262 . S
Ca171 O179 2.562 . S
Ca171 O180 2.606 . S
Ca171 O181 2.438 . S
Ca171 O182 2.696 . S
Ca171 O185 2.366 . S
Ca172 O173 2.766 . S
Ca172 O174 2.428 . S
Ca172 O176 2.366 . S
Ca172 O179 2.390 . S
Ca172 O183 2.352 . S
Ca172 O184 2.503 . S
Ca172 O185 2.599 . S
O173 C175 1.234 . A
O174 C175 1.239 . A
O176 C178 1.242 . S
O177 C178 1.262 . D
O179 C186 1.271 . S
O180 C186 1.237 . D
O181 C187 1.259 . A
O182 C187 1.239 . A
O183 C188 1.229 . T
O184 C189 1.252 . D
O185 C189 1.262 . S
Ca190 O198 2.562 . S
Ca190 O199 2.606 . S
Ca190 O200 2.438 . S
Ca190 O201 2.696 . S
Ca190 O204 2.366 . S
Ca191 O192 2.766 . S
Ca191 O193 2.428 . S
Ca191 O195 2.366 . S
Ca191 O198 2.390 . S
Ca191 O202 2.352 . S
Ca191 O203 2.503 . S
Ca191 O204 2.599 . S
O192 C194 1.234 . A
O193 C194 1.239 . A
O195 C197 1.242 . S
O196 C197 1.262 . D
O198 C205 1.271 . S
O199 C205 1.237 . D
O200 C206 1.259 . A
O201 C206 1.239 . A
O202 C207 1.229 . T
O203 C208 1.252 . D
O204 C208 1.262 . S
Ca209 O217 2.562 . S
Ca209 O218 2.606 . S
Ca209 O219 2.438 . S
Ca209 O220 2.696 . S
Ca209 O223 2.366 . S
Ca210 O211 2.766 . S
Ca210 O212 2.428 . S
Ca210 O214 2.366 . S
Ca210 O217 2.390 . S
Ca210 O221 2.352 . S
Ca210 O222 2.503 . S
Ca210 O223 2.599 . S
O211 C213 1.234 . A
O212 C213 1.239 . A
O214 C216 1.242 . S
O215 C216 1.262 . D
O217 C224 1.271 . S
O218 C224 1.237 . D
O219 C225 1.259 . A
O220 C225 1.239 . A
O221 C226 1.229 . T
O222 C227 1.252 . D
O223 C227 1.262 . S
Ca228 O236 2.562 . S
Ca228 O237 2.606 . S
Ca228 O238 2.438 . S
Ca228 O239 2.696 . S
Ca228 O242 2.366 . S
Ca229 O230 2.766 . S
Ca229 O231 2.428 . S
Ca229 O233 2.366 . S
Ca229 O236 2.390 . S
Ca229 O240 2.352 . S
Ca229 O241 2.503 . S
Ca229 O242 2.599 . S
O230 C232 1.234 . A
O231 C232 1.239 . A
O233 C235 1.242 . S
O234 C235 1.262 . D
O236 C243 1.271 . S
O237 C243 1.237 . D
O238 C244 1.259 . A
O239 C244 1.239 . A
O240 C245 1.229 . T
O241 C246 1.252 . D
O242 C246 1.262 . S
Ca247 O255 2.562 . S
Ca247 O256 2.606 . S
Ca247 O257 2.438 . S
Ca247 O258 2.696 . S
Ca247 O261 2.366 . S
Ca248 O249 2.766 . S
Ca248 O250 2.428 . S
Ca248 O252 2.366 . S
Ca248 O255 2.390 1_655 S
Ca248 O259 2.352 . S
Ca248 O260 2.503 . S
Ca248 O261 2.599 1_655 S
O249 C251 1.234 . A
O250 C251 1.239 . A
O252 C254 1.242 . S
O253 C254 1.262 . D
O255 C262 1.271 . S
O256 C262 1.237 . D
O257 C263 1.259 . A
O258 C263 1.239 . A
O259 C264 1.229 . T
O260 C265 1.252 1_655 D
O261 C265 1.262 . S
Ca266 O274 2.562 . S
Ca266 O275 2.606 . S
Ca266 O276 2.438 . S
Ca266 O277 2.696 . S
Ca266 O280 2.366 . S
Ca267 O268 2.766 . S
Ca267 O269 2.428 . S
Ca267 O271 2.366 . S
Ca267 O274 2.390 1_545 S
Ca267 O278 2.352 . S
Ca267 O279 2.503 . S
Ca267 O280 2.599 1_545 S
O268 C270 1.234 . A
O269 C270 1.239 . A
O271 C273 1.242 . S
O272 C273 1.262 . D
O274 C281 1.271 . S
O275 C281 1.237 . D
O276 C282 1.259 . A
O277 C282 1.239 . A
O278 C283 1.229 . T
O279 C284 1.252 1_545 D
O280 C284 1.262 . S
Ca285 O293 2.562 . S
Ca285 O294 2.606 . S
Ca285 O295 2.438 . S
Ca285 O296 2.696 . S
Ca285 O299 2.366 . S
Ca286 O287 2.766 . S
Ca286 O288 2.428 . S
Ca286 O290 2.366 . S
Ca286 O293 2.390 1_455 S
Ca286 O297 2.352 . S
Ca286 O298 2.503 . S
Ca286 O299 2.599 1_455 S
O287 C289 1.234 . A
O288 C289 1.239 . A
O290 C292 1.242 . S
O291 C292 1.262 . D
O293 C300 1.271 . S
O294 C300 1.237 . D
O295 C301 1.259 . A
O296 C301 1.239 . A
O297 C302 1.229 . T
O298 C303 1.252 1_455 D
O299 C303 1.262 . S
H304 N313 0.860 . S
C305 H309 0.929 . S
C305 C311 1.348 . A
C305 C315 1.391 . A
H306 C312 0.930 . S
C307 H310 0.930 . S
C307 C312 1.412 . A
C307 C314 1.348 . A
H308 C315 0.929 . S
C311 C312 1.357 . A
C311 N313 1.427 . S
C314 C315 1.366 . A
H316 N325 0.860 . S
C317 H321 0.929 . S
C317 C323 1.348 . A
C317 C327 1.391 . A
H318 C324 0.930 . S
C319 H322 0.930 . S
C319 C324 1.412 . A
C319 C326 1.348 . A
H320 C327 0.929 . S
C323 C324 1.357 . A
C323 N325 1.427 . S
C326 C327 1.366 . A
H328 N337 0.860 . S
C329 H333 0.929 . S
C329 C335 1.348 . A
C329 C339 1.391 . A
H330 C336 0.930 . S
C331 H334 0.930 . S
C331 C336 1.412 . A
C331 C338 1.348 . A
H332 C339 0.929 . S
C335 C336 1.357 . A
C335 N337 1.427 . S
C338 C339 1.366 . A
H340 N349 0.860 . S
C341 H345 0.929 . S
C341 C347 1.348 . A
C341 C351 1.391 . A
H342 C348 0.930 . S
C343 H346 0.930 . S
C343 C348 1.412 . A
C343 C350 1.348 . A
H344 C351 0.929 . S
C347 C348 1.357 . A
C347 N349 1.427 . S
C350 C351 1.366 . A
H352 N361 0.860 . S
C353 H357 0.929 1_554 S
C353 C359 1.348 . A
C353 C363 1.391 . A
H354 C360 0.930 . S
C355 H358 0.930 . S
C355 C360 1.412 . A
C355 C362 1.348 . A
H356 C363 0.929 . S
C359 C360 1.357 . A
C359 N361 1.427 . S
C362 C363 1.366 . A
H364 N373 0.860 . S
C365 H369 0.929 . S
C365 C371 1.348 . A
C365 C375 1.391 . A
H366 C372 0.930 . S
C367 H370 0.930 . S
C367 C372 1.412 . A
C367 C374 1.348 . A
H368 C375 0.929 . S
C371 C372 1.357 . A
C371 N373 1.427 . S
C374 C375 1.366 . A
H376 N385 0.860 . S
C377 H381 0.929 . S
C377 C383 1.348 . A
C377 C387 1.391 . A
H378 C384 0.930 . S
C379 H382 0.930 . S
C379 C384 1.412 . A
C379 C386 1.348 . A
H380 C387 0.929 . S
C383 C384 1.357 . A
C383 N385 1.427 . S
C386 C387 1.366 . A
H388 N397 0.860 . S
C389 H393 0.929 . S
C389 C395 1.348 . A
C389 C399 1.391 . A
H390 C396 0.930 . S
C391 H394 0.930 . S
C391 C396 1.412 . A
C391 C398 1.348 . A
H392 C399 0.929 . S
C395 C396 1.357 . A
C395 N397 1.427 . S
C398 C399 1.366 . A
H400 N409 0.860 . S
C401 H405 0.929 . S
C401 C407 1.348 . A
C401 C411 1.391 . A
H402 C408 0.930 . S
C403 H406 0.930 . S
C403 C408 1.412 . A
C403 C410 1.348 . A
H404 C411 0.929 1_554 S
C407 C408 1.357 . A
C407 N409 1.427 . S
C410 C411 1.366 . A
H412 N421 0.860 . S
C413 H417 0.929 . S
C413 C419 1.348 . A
C413 C423 1.391 . A
H414 C420 0.930 . S
C415 H418 0.930 . S
C415 C420 1.412 . A
C415 C422 1.348 . A
H416 C423 0.929 1_556 S
C419 C420 1.357 . A
C419 N421 1.427 . S
C422 C423 1.366 . A
H424 N433 0.874 . S
C425 H429 0.929 . S
C425 C431 1.348 . A
C425 C435 1.391 . A
H426 C432 0.930 . S
C427 H430 0.930 . S
C427 C432 1.412 . A
C427 C434 1.348 . A
H428 C435 0.929 . S
C431 C432 1.357 . A
C431 N433 1.410 1_556 S
C434 C435 1.366 . A
H436 N445 0.860 . S
C437 H441 0.929 . S
C437 C443 1.348 . A
C437 C447 1.391 . A
H438 C444 0.930 . S
C439 H442 0.930 . S
C439 C444 1.412 . A
C439 C446 1.348 . A
H440 C447 0.929 . S
C443 C444 1.357 . A
C443 N445 1.427 . S
C446 C447 1.366 . A
H448 N457 0.860 . S
C449 H453 0.929 . S
C449 C455 1.348 . A
C449 C459 1.391 . A
H450 C456 0.930 . S
C451 H454 0.930 . S
C451 C456 1.412 . A
C451 C458 1.348 . A
H452 C459 0.929 . S
C455 C456 1.357 . A
C455 N457 1.427 . S
C458 C459 1.366 . A
H460 N469 0.860 . S
C461 H465 0.929 . S
C461 C467 1.348 . A
C461 C471 1.391 . A
H462 C468 0.930 . S
C463 H466 0.930 . S
C463 C468 1.412 . A
C463 C470 1.348 . A
H464 C471 0.929 . S
C467 C468 1.357 . A
C467 N469 1.427 . S
C470 C471 1.366 . A
H472 N481 0.860 . S
C473 H477 0.929 . S
C473 C479 1.348 . A
C473 C483 1.391 . A
H474 C480 0.930 . S
C475 H478 0.930 . S
C475 C480 1.412 . A
C475 C482 1.348 . A
H476 C483 0.929 . S
C479 C480 1.357 . A
C479 N481 1.427 . S
C482 C483 1.366 . A
H484 N493 0.860 . S
C485 H489 0.929 . S
C485 C491 1.348 . A
C485 C495 1.391 . A
H486 C492 0.930 . S
C487 H490 0.930 . S
C487 C492 1.412 . A
C487 C494 1.348 . A
H488 C495 0.929 . S
C491 C492 1.357 . A
C491 N493 1.427 . S
C494 C495 1.366 . A
H496 N505 0.860 . S
C497 H501 0.929 . S
C497 C503 1.348 . A
C497 C507 1.391 . A
H498 C504 0.930 . S
C499 H502 0.930 . S
C499 C504 1.412 . A
C499 C506 1.348 . A
H500 C507 0.929 . S
C503 C504 1.357 . A
C503 N505 1.427 . S
C506 C507 1.366 . A
H508 N517 0.860 . S
C509 H513 0.929 . S
C509 C515 1.348 . A
C509 C519 1.391 . A
H510 C516 0.930 . S
C511 H514 0.930 . S
C511 C516 1.412 . A
C511 C518 1.348 . A
H512 C519 0.929 . S
C515 C516 1.357 . A
C515 N517 1.427 . S
C518 C519 1.366 . A
H520 N529 0.860 . S
C521 H525 0.929 . S
C521 C527 1.348 . A
C521 C531 1.391 . A
H522 C528 0.930 . S
C523 H526 0.930 . S
C523 C528 1.412 . A
C523 C530 1.348 . A
H524 C531 0.929 . S
C527 C528 1.357 . A
C527 N529 1.427 . S
C530 C531 1.366 . A
H532 N541 0.860 . S
C533 H537 0.929 . S
C533 C539 1.348 . A
C533 C543 1.391 . A
H534 C540 0.930 . S
C535 H538 0.930 . S
C535 C540 1.412 . A
C535 C542 1.348 . A
H536 C543 0.929 . S
C539 C540 1.357 . A
C539 N541 1.427 . S
C542 C543 1.366 . A
H544 N553 0.860 . S
C545 H549 0.929 . S
C545 C551 1.348 . A
C545 C555 1.391 . A
H546 C552 0.930 . S
C547 H550 0.930 . S
C547 C552 1.412 . A
C547 C554 1.348 . A
H548 C555 0.929 . S
C551 C552 1.357 . A
C551 N553 1.427 . S
C554 C555 1.366 . A
H556 N565 0.860 . S
C557 H561 0.929 . S
C557 C563 1.348 . A
C557 C567 1.391 . A
H558 C564 0.930 . S
C559 H562 0.930 . S
C559 C564 1.412 . A
C559 C566 1.348 . A
H560 C567 0.929 . S
C563 C564 1.357 . A
C563 N565 1.427 . S
C566 C567 1.366 . A
H568 N577 0.860 . S
C569 H573 0.929 . S
C569 C575 1.348 . A
C569 C579 1.391 . A
H570 C576 0.930 . S
C571 H574 0.930 . S
C571 C576 1.412 . A
C571 C578 1.348 . A
H572 C579 0.929 . S
C575 C576 1.357 . A
C575 N577 1.427 . S
C578 C579 1.366 . A
H580 N589 0.860 . S
C581 H585 0.929 . S
C581 C587 1.348 . A
C581 C591 1.391 . A
H582 C588 0.930 . S
C583 H586 0.930 . S
C583 C588 1.412 . A
C583 C590 1.348 . A
H584 C591 0.929 . S
C587 C588 1.357 . A
C587 N589 1.427 . S
C590 C591 1.366 . A
H592 N601 0.860 . S
C593 H597 0.929 . S
C593 C599 1.348 . A
C593 C603 1.391 . A
H594 C600 0.930 . S
C595 H598 0.930 . S
C595 C600 1.412 . A
C595 C602 1.348 . A
H596 C603 0.929 . S
C599 C600 1.357 . A
C599 N601 1.427 . S
C602 C603 1.366 . A
H604 N613 0.860 . S
C605 H609 0.929 . S
C605 C611 1.348 . A
C605 C615 1.391 . A
H606 C612 0.930 . S
C607 H610 0.930 . S
C607 C612 1.412 . A
C607 C614 1.348 . A
H608 C615 0.929 . S
C611 C612 1.357 . A
C611 N613 1.427 . S
C614 C615 1.366 . A
H616 N625 0.860 . S
C617 H621 0.929 . S
C617 C623 1.348 . A
C617 C627 1.391 . A
H618 C624 0.930 . S
C619 H622 0.930 . S
C619 C624 1.412 . A
C619 C626 1.348 . A
H620 C627 0.929 . S
C623 C624 1.357 . A
C623 N625 1.427 . S
C626 C627 1.366 . A
H628 N637 0.860 . S
C629 H633 0.929 . S
C629 C635 1.348 . A
C629 C639 1.391 . A
H630 C636 0.930 . S
C631 H634 0.930 . S
C631 C636 1.412 . A
C631 C638 1.348 . A
H632 C639 0.929 . S
C635 C636 1.357 . A
C635 N637 1.427 . S
C638 C639 1.366 . A
H640 N649 0.860 . S
C641 H645 0.929 . S
C641 C647 1.348 . A
C641 C651 1.391 1_556 A
H642 C648 0.924 1_556 S
C643 H646 0.930 . S
C643 C648 1.412 . A
C643 C650 1.348 . A
H644 C651 0.929 . S
C647 C648 1.357 1_556 A
C647 N649 1.427 . S
C650 C651 1.366 . A
H652 N661 0.860 . S
C653 H657 0.929 . S
C653 C659 1.348 . A
C653 C663 1.391 . A
H654 C660 0.930 . S
C655 H658 0.930 . S
C655 C660 1.412 . A
C655 C662 1.348 . A
H656 C663 0.929 . S
C659 C660 1.357 . A
C659 N661 1.427 . S
C662 C663 1.366 . A
H664 N673 0.860 . S
C665 H669 0.929 . S
C665 C671 1.348 . A
C665 C675 1.391 . A
H666 C672 0.930 . S
C667 H670 0.930 . S
C667 C672 1.412 . A
C667 C674 1.348 . A
H668 C675 0.929 . S
C671 C672 1.357 . A
C671 N673 1.427 . S
C674 C675 1.366 . A
H676 N685 0.860 . S
C677 H681 0.929 . S
C677 C683 1.348 . A
C677 C687 1.391 . A
H678 C684 0.930 . S
C679 H682 0.930 . S
C679 C684 1.412 . A
C679 C686 1.348 . A
H680 C687 0.929 . S
C683 C684 1.357 . A
C683 N685 1.427 . S
C686 C687 1.366 . A
H688 N697 0.860 . S
C689 H693 0.929 . S
C689 C695 1.348 . A
C689 C699 1.391 1_556 A
H690 C696 0.930 . S
C691 H694 0.930 . S
C691 C696 1.412 1_554 A
C691 C698 1.348 . A
H692 C699 0.929 . S
C695 C696 1.357 . A
C695 N697 1.427 . S
C698 C699 1.366 . A
H700 N709 0.860 . S
C701 H705 0.929 . S
C701 C707 1.348 . A
C701 C711 1.391 1_554 A
H702 C708 0.930 . S
C703 H706 0.930 . S
C703 C708 1.412 . A
C703 C710 1.348 . A
H704 C711 0.929 . S
C707 C708 1.357 1_554 A
C707 N709 1.427 . S
C710 C711 1.366 . A
H712 N721 0.860 . S
C713 H717 0.929 . S
C713 C719 1.348 . A
C713 C723 1.391 1_556 A
H714 C720 0.930 . S
C715 H718 0.930 . S
C715 C720 1.412 . A
C715 C722 1.348 . A
H716 C723 0.929 . S
C719 C720 1.357 1_556 A
C719 N721 1.427 . S
C722 C723 1.366 . A
H724 N733 0.860 . S
C725 H729 0.929 . S
C725 C731 1.348 . A
C725 C735 1.391 . A
H726 C732 0.930 . S
C727 H730 0.930 . S
C727 C732 1.412 . A
C727 C734 1.348 . A
H728 C735 0.929 . S
C731 C732 1.357 . A
C731 N733 1.427 . S
C734 C735 1.366 . A
H736 N745 0.860 . S
C737 H741 0.929 . S
C737 C743 1.348 . A
C737 C747 1.391 . A
H738 C744 0.930 . S
C739 H742 0.930 . S
C739 C744 1.412 . A
C739 C746 1.348 . A
H740 C747 0.929 . S
C743 C744 1.357 . A
C743 N745 1.427 . S
C746 C747 1.366 . A
H748 N757 0.860 . S
C749 H753 0.929 . S
C749 C755 1.348 . A
C749 C759 1.391 . A
H750 C756 0.930 . S
C751 H754 0.930 . S
C751 C756 1.412 . A
C751 C758 1.348 . A
H752 C759 0.929 . S
C755 C756 1.357 . A
C755 N757 1.427 . S
C758 C759 1.366 . A
H760 N769 0.860 . S
C761 H765 0.929 . S
C761 C767 1.348 . A
C761 C771 1.391 . A
H762 C768 0.930 . S
C763 H766 0.930 . S
C763 C768 1.412 . A
C763 C770 1.348 . A
H764 C771 0.929 . S
C767 C768 1.357 . A
C767 N769 1.427 . S
C770 C771 1.366 . A
H772 N781 0.860 . S
C773 H777 0.929 . S
C773 C779 1.348 . A
C773 C783 1.391 . A
H774 C780 0.930 . S
C775 H778 0.930 . S
C775 C780 1.412 . A
C775 C782 1.348 . A
H776 C783 0.929 . S
C779 C780 1.357 . A
C779 N781 1.427 . S
C782 C783 1.366 . A
H784 N793 0.860 . S
C785 H789 0.929 . S
C785 C791 1.348 . A
C785 C795 1.391 1_655 A
H786 C792 0.920 1_655 S
C787 H790 0.930 . S
C787 C792 1.436 . A
C787 C794 1.348 . A
H788 C795 0.929 . S
C791 C792 1.344 1_655 A
C791 N793 1.427 . S
C794 C795 1.366 . A
H796 N805 0.860 . S
C797 H801 0.929 . S
C797 C803 1.348 . A
C797 C807 1.391 1_545 A
H798 C804 0.920 1_545 S
C799 H802 0.930 . S
C799 C804 1.435 . A
C799 C806 1.348 . A
H800 C807 0.929 . S
C803 C804 1.345 1_545 A
C803 N805 1.427 . S
C806 C807 1.366 . A
H808 N817 0.860 . S
C809 H813 0.929 . S
C809 C815 1.348 1_565 A
C809 C819 1.391 1_655 A
H810 C816 0.930 . S
C811 H814 0.930 . S
C811 C816 1.412 1_455 A
C811 C818 1.348 1_545 A
H812 C819 0.929 . S
C815 C816 1.357 . A
C815 N817 1.427 . S
C818 C819 1.366 . A
H820 N829 0.860 1_455 S
C821 H825 0.929 . S
C821 C827 1.350 1_655 A
C821 C831 1.391 . A
H822 C828 0.930 . S
C823 H826 0.930 . S
C823 C828 1.412 . A
C823 C830 1.348 . A
H824 C831 0.929 . S
C827 C828 1.355 . A
C827 N829 1.427 1_455 S
C830 C831 1.366 1_455 A
H832 N841 0.860 . S
C833 H837 0.929 . S
C833 C839 1.348 . A
C833 C843 1.391 . A
H834 C840 0.930 . S
C835 H838 0.930 . S
C835 C840 1.412 . A
C835 C842 1.348 . A
H836 C843 0.929 . S
C839 C840 1.357 . A
C839 N841 1.427 . S
C842 C843 1.366 . A
H844 N853 0.860 . S
C845 H849 0.929 . S
C845 C851 1.348 1_565 A
C845 C855 1.391 . A
H846 C852 0.930 . S
C847 H850 0.930 . S
C847 C852 1.412 . A
C847 C854 1.348 . A
H848 C855 0.929 . S
C851 C852 1.357 . A
C851 N853 1.427 . S
C854 C855 1.366 1_545 A
H856 N865 0.860 . S
C857 H861 0.929 . S
C857 C863 1.348 . A
C857 C867 1.391 . A
H858 C864 0.930 . S
C859 H862 0.930 . S
C859 C864 1.412 . A
C859 C866 1.348 . A
H860 C867 0.929 . S
C863 C864 1.357 . A
C863 N865 1.427 . S
C866 C867 1.366 . A
H868 N877 0.860 . S
C869 H873 0.929 . S
C869 C875 1.348 1_455 A
C869 C879 1.391 1_565 A
H870 C876 0.920 1_565 S
C871 H874 0.930 . S
C871 C876 1.434 . A
C871 C878 1.362 . A
H872 C879 0.929 . S
C875 C876 1.345 1_565 A
C875 N877 1.427 . S
C878 C879 1.354 1_655 A
N313 C18 2.159 . S
C314 C156 2.100 . S
N325 C37 2.168 . S
C326 C175 2.141 . S
N337 C232 2.019 . S
C338 C56 2.251 . S
N349 C75 2.128 . S
C350 C270 2.083 . S
N361 C99 2.128 1_554 S
C362 C94 2.236 . S
N373 C42 1.919 . S
C374 C113 2.234 . S
N385 C132 2.180 . S
C386 C251 2.066 . S
N397 C151 2.148 . S
C398 C289 2.141 . S
N409 C170 2.142 . S
C410 C118 2.116 1_556 S
N421 C189 2.130 . S
C422 C61 2.160 1_554 S
N433 C137 1.940 . S
C434 C208 2.232 . S
N445 C194 2.079 . S
C446 C227 2.239 . S
N457 C246 2.157 . S
C458 C80 2.117 . S
N469 C4 2.144 . S
C470 C265 2.261 . S
N481 C23 2.038 . S
C482 C284 2.249 . S
N493 C303 2.130 . S
C494 C213 2.089 . S
N505 C283 0.949 . S
C506 C17 1.075 . S
N517 C302 0.841 . S
C518 C36 0.909 . S
N529 C226 0.773 . S
C530 C55 1.144 . S
N541 C74 1.125 . S
C542 C207 1.132 . S
N553 C93 0.969 . S
C554 C150 1.043 . S
N565 C112 0.857 . S
C566 C169 1.006 . S
N577 C131 1.209 . S
C578 C188 0.923 . S
N589 C245 0.917 . S
C590 C264 1.036 . S
N601 C102 1.569 . S
C602 C16 1.337 . S
N613 C121 1.661 . S
C614 C35 1.504 . S
N625 C254 1.643 . S
C626 C54 1.456 . S
N637 C7 1.647 . S
C638 C73 1.388 . S
N649 C159 1.657 . S
C650 C92 1.424 . S
N661 C111 1.552 . S
C662 C216 1.716 . S
N673 C235 1.567 . S
C674 C130 1.501 . S
N685 C26 1.551 . S
C686 C149 1.396 . S
N697 C168 1.550 . S
C698 C178 1.716 . S
N709 C187 1.481 . S
C710 C197 1.705 . S
N721 C206 1.465 . S
C722 C83 1.720 . S
N733 C64 1.667 . S
C734 C225 1.374 . S
N745 C140 1.668 . S
C746 C244 1.479 . S
N757 C263 1.090 . S
C758 C273 1.672 . S
N769 C292 1.668 . S
C770 C282 1.343 . S
N781 C45 1.560 . S
C782 C301 1.272 . S
N793 C224 1.346 . S
C794 C15 1.353 . S
N805 C243 1.047 . S
C806 C34 1.416 . S
N817 C53 1.092 . S
C818 C281 1.231 . S
N829 C110 1.443 . S
C830 C72 1.270 . S
N841 C91 1.394 . S
C842 C186 1.399 . S
N853 C148 1.394 1_545 S
C854 C129 1.399 . S
N865 C205 1.078 . S
C866 C167 1.374 . S
N877 C300 1.049 . S
C878 C262 1.393 1_655 S
