# Generated by pormake.
# Topology wlj, (5)-cn, num edge types: 1
# Building blocks:
#     Node 0, Type 0, BuildingBlock: N332, # of connection points: 5
#     Node 1, Type 0, BuildingBlock: N332, # of connection points: 5
#     Node 2, Type 0, BuildingBlock: N332, # of connection points: 5
#     Node 3, Type 0, BuildingBlock: N332, # of connection points: 5
#     Node 4, Type 0, BuildingBlock: N332, # of connection points: 5
#     Node 5, Type 0, BuildingBlock: N332, # of connection points: 5
#     Edge 6, Type (0, 0), BuildingBlock: E27, # of connection points: 2
#     Edge 7, Type (0, 0), BuildingBlock: E27, # of connection points: 2
#     Edge 8, Type (0, 0), BuildingBlock: E27, # of connection points: 2
#     Edge 9, Type (0, 0), BuildingBlock: E27, # of connection points: 2
#     Edge 10, Type (0, 0), BuildingBlock: E27, # of connection points: 2
#     Edge 11, Type (0, 0), BuildingBlock: E27, # of connection points: 2
#     Edge 12, Type (0, 0), BuildingBlock: E27, # of connection points: 2
#     Edge 13, Type (0, 0), BuildingBlock: E27, # of connection points: 2
#     Edge 14, Type (0, 0), BuildingBlock: E27, # of connection points: 2
#     Edge 15, Type (0, 0), BuildingBlock: E27, # of connection points: 2
#     Edge 16, Type (0, 0), BuildingBlock: E27, # of connection points: 2
#     Edge 17, Type (0, 0), BuildingBlock: E27, # of connection points: 2
#     Edge 18, Type (0, 0), BuildingBlock: E27, # of connection points: 2
#     Edge 19, Type (0, 0), BuildingBlock: E27, # of connection points: 2
#     Edge 20, Type (0, 0), BuildingBlock: E27, # of connection points: 2
# Relax obj value: 0.186
# Max RMSD: 0.254
# Mean RMSD: 0.254
data_wlj+N332+E27
_symmetry_space_group_name_H-M    P1
_symmetry_Int_Tables_number       1
_symmetry_cell_setting            triclinic
loop_
_symmetry_equiv_pos_as_xyz
'x, y, z'
_cell_length_a     24.333
_cell_length_b     24.333
_cell_length_c     57.428
_cell_angle_alpha  90.009
_cell_angle_beta   89.991
_cell_angle_gamma  119.998
loop_
_atom_site_label
_atom_site_type_symbol
_atom_site_fract_x
_atom_site_fract_y
_atom_site_fract_z
_atom_type_partial_charge
H0 H 0.32546 0.81189 0.77721 0.00000
H1 H 0.38931 0.91112 0.79325 0.00000
H2 H 0.46203 0.83328 0.83481 0.00000
H3 H 0.39989 0.73882 0.81791 0.00000
H4 H 0.20536 0.55677 0.79414 0.00000
H5 H 0.09959 0.50037 0.79337 0.00000
H6 H 0.09649 0.65649 0.77429 0.00000
H7 H 0.20523 0.70868 0.77472 0.00000
H8 H 0.44737 0.55829 0.79116 0.00000
H9 H 0.51245 0.55109 0.81818 0.00000
H10 H 0.35542 0.40202 0.84568 0.00000
H11 H 0.29778 0.41660 0.81743 0.00000
H12 H 0.42429 0.66996 0.70112 0.00000
H13 H 0.48311 0.66909 0.67264 0.00000
H14 H 0.33425 0.51507 0.64612 0.00000
H15 H 0.27638 0.51696 0.67773 0.00000
H16 H 0.20851 0.60514 0.69291 0.00000
H17 H 0.10238 0.56519 0.68791 0.00000
H18 H 0.07168 0.44446 0.73945 0.00000
H19 H 0.17575 0.49125 0.74594 0.00000
C20 C 0.35420 0.81652 0.78879 0.00000
C21 C 0.39181 0.87642 0.79870 0.00000
C22 C 0.43191 0.88366 0.81626 0.00000
C23 C 0.43438 0.83006 0.82301 0.00000
C24 C 0.39754 0.77376 0.81269 0.00000
C25 C 0.18319 0.57705 0.78966 0.00000
C26 C 0.11976 0.54334 0.78968 0.00000
C27 C 0.08376 0.57042 0.78431 0.00000
C28 C 0.11767 0.63494 0.77829 0.00000
C29 C 0.18335 0.66578 0.77849 0.00000
C30 C 0.42893 0.52657 0.80236 0.00000
C31 C 0.46899 0.52304 0.81859 0.00000
C32 C 0.44195 0.47554 0.83590 0.00000
C33 C 0.37566 0.43465 0.83487 0.00000
C34 C 0.34145 0.44353 0.81779 0.00000
C35 C 0.40570 0.63787 0.69004 0.00000
C36 C 0.44061 0.63757 0.67319 0.00000
C37 C 0.41624 0.59103 0.65566 0.00000
C38 C 0.35352 0.54651 0.65740 0.00000
C39 C 0.31865 0.54856 0.67637 0.00000
C40 C 0.18036 0.57247 0.70259 0.00000
C41 C 0.11658 0.54929 0.69975 0.00000
C42 C 0.07393 0.50302 0.71414 0.00000
C43 C 0.09913 0.47923 0.73043 0.00000
C44 C 0.16112 0.50473 0.73342 0.00000
S45 S 0.33012 0.52764 0.74453 0.00000
S46 S 0.34342 0.68544 0.74090 0.00000
S47 S 0.34851 0.61778 0.79732 0.00000
I48 I 0.20082 0.43500 0.79430 0.00000
N49 N 0.35763 0.76558 0.79524 0.00000
N50 N 0.21682 0.63868 0.78356 0.00000
N51 N 0.36838 0.48983 0.80135 0.00000
N52 N 0.34293 0.59351 0.69247 0.00000
N53 N 0.20390 0.54961 0.71896 0.00000
Cu54 Cu 0.30685 0.51629 0.78299 0.00000
Cu55 Cu 0.29731 0.58736 0.72427 0.00000
Cu56 Cu 0.31271 0.67819 0.77877 0.00000
Mo57 Mo 0.37863 0.62658 0.75977 0.00000
H58 H 0.18825 0.51372 0.44384 0.00000
H59 H 0.08902 0.47835 0.45988 0.00000
H60 H 0.16685 0.62894 0.50145 0.00000
H61 H 0.26131 0.66124 0.48455 0.00000
H62 H 0.44337 0.64874 0.46078 0.00000
H63 H 0.49977 0.59937 0.46002 0.00000
H64 H 0.34366 0.44015 0.44093 0.00000
H65 H 0.29146 0.49669 0.44136 0.00000
H66 H 0.44185 0.88923 0.45780 0.00000
H67 H 0.44903 0.96151 0.48482 0.00000
H68 H 0.59810 0.95358 0.51232 0.00000
H69 H 0.58353 0.88134 0.48407 0.00000
H70 H 0.33020 0.75443 0.36776 0.00000
H71 H 0.33107 0.81410 0.33927 0.00000
H72 H 0.48510 0.81924 0.31276 0.00000
H73 H 0.48320 0.75950 0.34438 0.00000
H74 H 0.39502 0.60346 0.35955 0.00000
H75 H 0.43498 0.53729 0.35455 0.00000
H76 H 0.55570 0.62734 0.40609 0.00000
H77 H 0.50890 0.68462 0.41258 0.00000
C78 C 0.18362 0.53785 0.45542 0.00000
C79 C 0.12371 0.51555 0.46533 0.00000
C80 C 0.11647 0.54842 0.48289 0.00000
C81 C 0.17007 0.60450 0.48964 0.00000
C82 C 0.22637 0.62395 0.47933 0.00000
C83 C 0.42309 0.60630 0.45630 0.00000
C84 C 0.45680 0.57657 0.45632 0.00000
C85 C 0.42973 0.51349 0.45095 0.00000
C86 C 0.36521 0.48288 0.44493 0.00000
C87 C 0.33436 0.51771 0.44513 0.00000
C88 C 0.47356 0.90251 0.46900 0.00000
C89 C 0.47709 0.94611 0.48524 0.00000
C90 C 0.52458 0.96658 0.50255 0.00000
C91 C 0.56548 0.94118 0.50151 0.00000
C92 C 0.55660 0.89809 0.48444 0.00000
C93 C 0.36229 0.76792 0.35668 0.00000
C94 C 0.36259 0.80312 0.33983 0.00000
C95 C 0.40913 0.82528 0.32230 0.00000
C96 C 0.45366 0.80709 0.32404 0.00000
C97 C 0.45161 0.77017 0.34301 0.00000
C98 C 0.42769 0.60799 0.36923 0.00000
C99 C 0.45087 0.56738 0.36639 0.00000
C100 C 0.49714 0.57102 0.38078 0.00000
C101 C 0.52093 0.62002 0.39707 0.00000
C102 C 0.49542 0.65650 0.40006 0.00000
S103 S 0.47251 0.80260 0.41117 0.00000
S104 S 0.31471 0.65811 0.40754 0.00000
S105 S 0.38236 0.73088 0.46396 0.00000
I106 I 0.56514 0.76596 0.46095 0.00000
N107 N 0.23456 0.59221 0.46187 0.00000
N108 N 0.36146 0.57829 0.45020 0.00000
N109 N 0.51030 0.87870 0.46799 0.00000
N110 N 0.40665 0.74951 0.35911 0.00000
N111 N 0.45054 0.65439 0.38560 0.00000
Cu112 Cu 0.48385 0.79071 0.44963 0.00000
Cu113 Cu 0.41279 0.71006 0.39091 0.00000
Cu114 Cu 0.32195 0.63467 0.44540 0.00000
Mo115 Mo 0.37356 0.75218 0.42641 0.00000
H116 H 0.67437 0.48631 0.88953 0.00000
H117 H 0.61051 0.52169 0.87349 0.00000
H118 H 0.53778 0.37113 0.83192 0.00000
H119 H 0.59993 0.33881 0.84881 0.00000
H120 H 0.79447 0.35129 0.87256 0.00000
H121 H 0.90024 0.40066 0.87332 0.00000
H122 H 0.90335 0.55987 0.89242 0.00000
H123 H 0.79460 0.50333 0.89200 0.00000
H124 H 0.55246 0.11080 0.87554 0.00000
H125 H 0.48738 0.03853 0.84852 0.00000
H126 H 0.64439 0.04648 0.82100 0.00000
H127 H 0.70204 0.11870 0.84925 0.00000
H128 H 0.57558 0.24556 0.96559 0.00000
H129 H 0.51677 0.18588 0.99407 0.00000
H130 H 0.66564 0.18072 0.02058 0.00000
H131 H 0.72349 0.24047 0.98896 0.00000
H132 H 0.79136 0.39652 0.97379 0.00000
H133 H 0.89749 0.46269 0.97879 0.00000
H134 H 0.92817 0.37265 0.92724 0.00000
H135 H 0.82410 0.31538 0.92075 0.00000
C136 C 0.64562 0.46219 0.87795 0.00000
C137 C 0.60801 0.48449 0.86805 0.00000
C138 C 0.56790 0.45163 0.85048 0.00000
C139 C 0.56543 0.39555 0.84373 0.00000
C140 C 0.60227 0.37610 0.85403 0.00000
C141 C 0.81664 0.39373 0.87704 0.00000
C142 C 0.88007 0.42345 0.87702 0.00000
C143 C 0.91607 0.48653 0.88240 0.00000
C144 C 0.88216 0.51714 0.88842 0.00000
C145 C 0.81648 0.48231 0.88822 0.00000
C146 C 0.57090 0.09753 0.86433 0.00000
C147 C 0.53084 0.05394 0.84810 0.00000
C148 C 0.55787 0.03347 0.83078 0.00000
C149 C 0.62416 0.05887 0.83181 0.00000
C150 C 0.65837 0.10195 0.84889 0.00000
C151 C 0.59417 0.23206 0.97667 0.00000
C152 C 0.55927 0.19685 0.99351 0.00000
C153 C 0.58364 0.17469 0.01104 0.00000
C154 C 0.64636 0.19288 0.00930 0.00000
C155 C 0.68123 0.22980 0.99033 0.00000
C156 C 0.81950 0.39199 0.96412 0.00000
C157 C 0.88329 0.43259 0.96695 0.00000
C158 C 0.92593 0.42896 0.95255 0.00000
C159 C 0.90072 0.37997 0.93626 0.00000
C160 C 0.83874 0.34349 0.93327 0.00000
S161 S 0.66973 0.19741 0.92216 0.00000
S162 S 0.65643 0.34190 0.92582 0.00000
S163 S 0.65132 0.26915 0.86939 0.00000
I164 I 0.79901 0.23406 0.87238 0.00000
N165 N 0.64220 0.40783 0.87149 0.00000
N166 N 0.78301 0.42173 0.88315 0.00000
N167 N 0.63145 0.12133 0.86534 0.00000
N168 N 0.65694 0.25048 0.97423 0.00000
N169 N 0.79596 0.34560 0.94774 0.00000
Cu170 Cu 0.69298 0.20932 0.88370 0.00000
Cu171 Cu 0.70254 0.28993 0.94243 0.00000
Cu172 Cu 0.68712 0.36535 0.88795 0.00000
Mo173 Mo 0.62121 0.24783 0.90693 0.00000
H174 H 0.51372 0.18825 0.55616 0.00000
H175 H 0.47835 0.08902 0.54011 0.00000
H176 H 0.62894 0.16685 0.49855 0.00000
H177 H 0.66124 0.26131 0.51545 0.00000
H178 H 0.64874 0.44337 0.53922 0.00000
H179 H 0.59937 0.49977 0.53998 0.00000
H180 H 0.44015 0.34366 0.55907 0.00000
H181 H 0.49669 0.29146 0.55864 0.00000
H182 H 0.88923 0.44185 0.54220 0.00000
H183 H 0.96152 0.44903 0.51518 0.00000
H184 H 0.95358 0.59810 0.48768 0.00000
H185 H 0.88134 0.58353 0.51592 0.00000
H186 H 0.75443 0.33019 0.63224 0.00000
H187 H 0.81410 0.33107 0.66072 0.00000
H188 H 0.81924 0.48510 0.68724 0.00000
H189 H 0.75950 0.48320 0.65562 0.00000
H190 H 0.60346 0.39502 0.64044 0.00000
H191 H 0.53729 0.43498 0.64544 0.00000
H192 H 0.62734 0.55570 0.59390 0.00000
H193 H 0.68462 0.50890 0.58742 0.00000
C194 C 0.53785 0.18362 0.54458 0.00000
C195 C 0.51555 0.12371 0.53467 0.00000
C196 C 0.54842 0.11647 0.51711 0.00000
C197 C 0.60451 0.17007 0.51036 0.00000
C198 C 0.62395 0.22637 0.52067 0.00000
C199 C 0.60630 0.42309 0.54369 0.00000
C200 C 0.57657 0.45680 0.54368 0.00000
C201 C 0.51349 0.42973 0.54905 0.00000
C202 C 0.48288 0.36521 0.55507 0.00000
C203 C 0.51771 0.33436 0.55487 0.00000
C204 C 0.90251 0.47356 0.53099 0.00000
C205 C 0.94611 0.47709 0.51476 0.00000
C206 C 0.96658 0.52458 0.49745 0.00000
C207 C 0.94118 0.56548 0.49848 0.00000
C208 C 0.89809 0.55660 0.51556 0.00000
C209 C 0.76792 0.36229 0.64332 0.00000
C210 C 0.80312 0.36259 0.66016 0.00000
C211 C 0.82528 0.40913 0.67770 0.00000
C212 C 0.80709 0.45366 0.67596 0.00000
C213 C 0.77017 0.45160 0.65699 0.00000
C214 C 0.60799 0.42769 0.63077 0.00000
C215 C 0.56738 0.45087 0.63360 0.00000
C216 C 0.57102 0.49714 0.61921 0.00000
C217 C 0.62002 0.52093 0.60292 0.00000
C218 C 0.65650 0.49542 0.59993 0.00000
S219 S 0.80260 0.47251 0.58883 0.00000
S220 S 0.65811 0.31471 0.59246 0.00000
S221 S 0.73088 0.38236 0.53604 0.00000
I222 I 0.76596 0.56514 0.53905 0.00000
N223 N 0.59221 0.23456 0.53812 0.00000
N224 N 0.57829 0.36146 0.54979 0.00000
N225 N 0.87870 0.51030 0.53201 0.00000
N226 N 0.74951 0.40665 0.64089 0.00000
N227 N 0.65439 0.45054 0.61439 0.00000
Cu228 Cu 0.79071 0.48385 0.55036 0.00000
Cu229 Cu 0.71006 0.41279 0.60908 0.00000
Cu230 Cu 0.63468 0.32195 0.55459 0.00000
Mo231 Mo 0.75218 0.37356 0.57358 0.00000
H232 H 0.81189 0.32546 0.22280 0.00000
H233 H 0.91112 0.38931 0.20676 0.00000
H234 H 0.83327 0.46203 0.16519 0.00000
H235 H 0.73882 0.39989 0.18210 0.00000
H236 H 0.55677 0.20536 0.20587 0.00000
H237 H 0.50037 0.09959 0.20664 0.00000
H238 H 0.65648 0.09649 0.22572 0.00000
H239 H 0.70868 0.20523 0.22529 0.00000
H240 H 0.55829 0.44737 0.20885 0.00000
H241 H 0.55109 0.51245 0.18183 0.00000
H242 H 0.40202 0.35542 0.15433 0.00000
H243 H 0.41660 0.29778 0.18258 0.00000
H244 H 0.66996 0.42429 0.29889 0.00000
H245 H 0.66909 0.48311 0.32737 0.00000
H246 H 0.51507 0.33425 0.35389 0.00000
H247 H 0.51696 0.27638 0.32227 0.00000
H248 H 0.60514 0.20851 0.30710 0.00000
H249 H 0.56519 0.10238 0.31210 0.00000
H250 H 0.44446 0.07168 0.26056 0.00000
H251 H 0.49125 0.17575 0.25407 0.00000
C252 C 0.81652 0.35421 0.21122 0.00000
C253 C 0.87642 0.39181 0.20131 0.00000
C254 C 0.88366 0.43191 0.18375 0.00000
C255 C 0.83006 0.43438 0.17700 0.00000
C256 C 0.77376 0.39754 0.18732 0.00000
C257 C 0.57705 0.18319 0.21035 0.00000
C258 C 0.54334 0.11976 0.21033 0.00000
C259 C 0.57042 0.08376 0.21570 0.00000
C260 C 0.63494 0.11767 0.22172 0.00000
C261 C 0.66578 0.18335 0.22152 0.00000
C262 C 0.52657 0.42893 0.19765 0.00000
C263 C 0.52304 0.46899 0.18142 0.00000
C264 C 0.47554 0.44195 0.16410 0.00000
C265 C 0.43465 0.37566 0.16514 0.00000
C266 C 0.44353 0.34145 0.18222 0.00000
C267 C 0.63787 0.40570 0.30997 0.00000
C268 C 0.63757 0.44061 0.32682 0.00000
C269 C 0.59103 0.41624 0.34435 0.00000
C270 C 0.54651 0.35352 0.34261 0.00000
C271 C 0.54856 0.31865 0.32364 0.00000
C272 C 0.57247 0.18036 0.29742 0.00000
C273 C 0.54929 0.11658 0.30026 0.00000
C274 C 0.50302 0.07393 0.28587 0.00000
C275 C 0.47923 0.09913 0.26958 0.00000
C276 C 0.50473 0.16112 0.26659 0.00000
S277 S 0.52764 0.33012 0.25548 0.00000
S278 S 0.68544 0.34342 0.25911 0.00000
S279 S 0.61778 0.34851 0.20269 0.00000
I280 I 0.43500 0.20082 0.20571 0.00000
N281 N 0.76557 0.35763 0.20477 0.00000
N282 N 0.63868 0.21682 0.21645 0.00000
N283 N 0.48983 0.36838 0.19866 0.00000
N284 N 0.59351 0.34293 0.30754 0.00000
N285 N 0.54961 0.20390 0.28105 0.00000
Cu286 Cu 0.51629 0.30685 0.21702 0.00000
Cu287 Cu 0.58736 0.29731 0.27574 0.00000
Cu288 Cu 0.67819 0.31272 0.22124 0.00000
Mo289 Mo 0.62658 0.37863 0.24024 0.00000
H290 H 0.48631 0.67437 0.11047 0.00000
H291 H 0.52169 0.61051 0.12650 0.00000
H292 H 0.37113 0.53778 0.16807 0.00000
H293 H 0.33881 0.59993 0.15119 0.00000
H294 H 0.35129 0.79447 0.12743 0.00000
H295 H 0.40066 0.90024 0.12667 0.00000
H296 H 0.55987 0.90335 0.10757 0.00000
H297 H 0.50333 0.79460 0.10799 0.00000
H298 H 0.11080 0.55246 0.12445 0.00000
H299 H 0.03853 0.48738 0.15148 0.00000
H300 H 0.04648 0.64439 0.17899 0.00000
H301 H 0.11870 0.70204 0.15075 0.00000
H302 H 0.24556 0.57557 0.03441 0.00000
H303 H 0.18588 0.51677 0.00592 0.00000
H304 H 0.18072 0.66564 0.97942 0.00000
H305 H 0.24047 0.72349 0.01104 0.00000
H306 H 0.39652 0.79136 0.02620 0.00000
H307 H 0.46269 0.89748 0.02120 0.00000
H308 H 0.37265 0.92817 0.07276 0.00000
H309 H 0.31538 0.82410 0.07924 0.00000
C310 C 0.46219 0.64562 0.12205 0.00000
C311 C 0.48449 0.60801 0.13195 0.00000
C312 C 0.45163 0.56790 0.14951 0.00000
C313 C 0.39555 0.56543 0.15627 0.00000
C314 C 0.37610 0.60227 0.14596 0.00000
C315 C 0.39373 0.81664 0.12295 0.00000
C316 C 0.42345 0.88007 0.12297 0.00000
C317 C 0.48653 0.91607 0.11760 0.00000
C318 C 0.51714 0.88216 0.11157 0.00000
C319 C 0.48231 0.81648 0.11177 0.00000
C320 C 0.09753 0.57090 0.13567 0.00000
C321 C 0.05394 0.53084 0.15190 0.00000
C322 C 0.03347 0.55787 0.16922 0.00000
C323 C 0.05887 0.62416 0.16818 0.00000
C324 C 0.10195 0.65837 0.15111 0.00000
C325 C 0.23206 0.59417 0.02333 0.00000
C326 C 0.19685 0.55927 0.00648 0.00000
C327 C 0.17469 0.58364 0.98895 0.00000
C328 C 0.19288 0.64636 0.99070 0.00000
C329 C 0.22980 0.68123 0.00966 0.00000
C330 C 0.39199 0.81950 0.03588 0.00000
C331 C 0.43259 0.88329 0.03305 0.00000
C332 C 0.42896 0.92593 0.04744 0.00000
C333 C 0.37997 0.90072 0.06373 0.00000
C334 C 0.34349 0.83873 0.06672 0.00000
S335 S 0.19741 0.66973 0.07783 0.00000
S336 S 0.34190 0.65643 0.07418 0.00000
S337 S 0.26915 0.65132 0.13061 0.00000
I338 I 0.23406 0.79901 0.12761 0.00000
N339 N 0.40783 0.64220 0.12850 0.00000
N340 N 0.42173 0.78301 0.11685 0.00000
N341 N 0.12133 0.63145 0.13465 0.00000
N342 N 0.25048 0.65694 0.02576 0.00000
N343 N 0.34560 0.79596 0.05226 0.00000
Cu344 Cu 0.20932 0.69298 0.11629 0.00000
Cu345 Cu 0.28993 0.70254 0.05757 0.00000
Cu346 Cu 0.36535 0.68712 0.11205 0.00000
Mo347 Mo 0.24783 0.62121 0.09306 0.00000
N348 N 0.98717 0.52260 0.84592 0.00000
N349 N 0.01266 0.53536 0.82079 0.00000
N350 N 0.46474 0.47746 0.48743 0.00000
N351 N 0.47746 0.46474 0.51257 0.00000
N352 N 0.52260 0.98717 0.15408 0.00000
N353 N 0.53536 0.01266 0.17922 0.00000
N354 N 0.47476 0.47156 0.84480 0.00000
N355 N 0.53192 0.46089 0.84633 0.00000
N356 N 0.52855 0.00339 0.51144 0.00000
N357 N 0.53917 0.07121 0.51295 0.00000
N358 N 0.46788 0.92888 0.82041 0.00000
N359 N 0.52507 0.99671 0.82189 0.00000
N360 N 0.00339 0.52855 0.48856 0.00000
N361 N 0.07121 0.53917 0.48705 0.00000
N362 N 0.47156 0.47476 0.15521 0.00000
N363 N 0.46089 0.53192 0.15367 0.00000
N364 N 0.99671 0.52507 0.17810 0.00000
N365 N 0.92888 0.46788 0.17960 0.00000
N366 N 0.90730 0.43723 0.69692 0.00000
N367 N 0.97575 0.46528 0.70593 0.00000
N368 N 0.56294 0.47017 0.36357 0.00000
N369 N 0.53488 0.51058 0.37258 0.00000
N370 N 0.02415 0.48938 0.96075 0.00000
N371 N 0.09262 0.52974 0.96974 0.00000
N372 N 0.51058 0.53488 0.62742 0.00000
N373 N 0.47017 0.56294 0.63643 0.00000
N374 N 0.46528 0.97575 0.29407 0.00000
N375 N 0.43723 0.90730 0.30308 0.00000
N376 N 0.48938 0.02415 0.03925 0.00000
N377 N 0.52974 0.09262 0.03025 0.00000
loop_
_geom_bond_atom_site_label_1
_geom_bond_atom_site_label_2
_geom_bond_distance
_geom_bond_site_symmetry_2
_ccdc_geom_bond_type
H0 C20 0.930 . S
H1 C21 0.930 . S
H2 C23 0.930 . S
H3 C24 0.930 . S
H4 C25 0.931 . S
H5 C26 0.931 . S
H6 C28 0.929 . S
H7 C29 0.930 . S
H8 C30 0.930 . S
H9 C31 0.929 . S
H10 C33 0.931 . S
H11 C34 0.929 . S
H12 C35 0.931 . S
H13 C36 0.930 . S
H14 C38 0.931 . S
H15 C39 0.930 . S
H16 C40 0.930 . S
H17 C41 0.930 . S
H18 C43 0.930 . S
H19 C44 0.932 . S
C20 C21 1.397 . A
C20 N49 1.336 . A
C21 C22 1.352 . A
C22 C23 1.391 . A
C23 C24 1.343 . A
C24 N49 1.340 . A
C25 C26 1.338 . A
C25 N50 1.347 . A
C26 C27 1.369 . A
C27 C28 1.403 . A
C28 C29 1.385 . A
C29 N50 1.312 . A
C30 C31 1.382 . A
C30 N51 1.287 . A
C31 C32 1.413 . A
C32 C33 1.411 . A
C33 C34 1.372 . A
C34 N51 1.361 . A
C35 C36 1.290 . A
C35 N52 1.367 . A
C36 C37 1.406 . A
C37 C38 1.364 . A
C38 C39 1.397 . A
C39 N52 1.325 . A
C40 C41 1.370 . A
C40 N53 1.357 . A
C41 C42 1.364 . A
C42 C43 1.393 . A
C43 C44 1.324 . A
C44 N53 1.352 . A
S45 Cu54 2.263 . S
S45 Cu55 2.294 . S
S45 Mo57 2.261 . S
S46 Cu55 2.278 . S
S46 Cu56 2.277 . S
S46 Mo57 2.278 . S
S47 Cu54 2.302 . S
S47 Cu56 2.310 . S
S47 Mo57 2.253 . S
I48 Cu54 2.427 . S
N49 Cu56 2.070 . S
N50 Cu56 2.050 . S
N51 Cu54 2.175 . S
N52 Cu55 2.103 . S
N53 Cu55 2.004 . S
Cu54 Mo57 2.710 . S
Cu55 Mo57 2.664 . S
Cu56 Mo57 2.712 . S
H58 C78 0.930 . S
H59 C79 0.930 . S
H60 C81 0.930 . S
H61 C82 0.930 . S
H62 C83 0.931 . S
H63 C84 0.931 . S
H64 C86 0.929 . S
H65 C87 0.930 . S
H66 C88 0.930 . S
H67 C89 0.929 . S
H68 C91 0.931 . S
H69 C92 0.929 . S
H70 C93 0.931 . S
H71 C94 0.930 . S
H72 C96 0.931 . S
H73 C97 0.930 . S
H74 C98 0.930 . S
H75 C99 0.930 . S
H76 C101 0.930 . S
H77 C102 0.932 . S
C78 C79 1.397 . A
C78 N107 1.336 . A
C79 C80 1.352 . A
C80 C81 1.391 . A
C81 C82 1.343 . A
C82 N107 1.340 . A
C83 C84 1.338 . A
C83 N108 1.347 . A
C84 C85 1.369 . A
C85 C86 1.403 . A
C86 C87 1.385 . A
C87 N108 1.312 . A
C88 C89 1.382 . A
C88 N109 1.287 . A
C89 C90 1.413 . A
C90 C91 1.411 . A
C91 C92 1.372 . A
C92 N109 1.361 . A
C93 C94 1.290 . A
C93 N110 1.367 . A
C94 C95 1.406 . A
C95 C96 1.364 . A
C96 C97 1.397 . A
C97 N110 1.325 . A
C98 C99 1.370 . A
C98 N111 1.357 . A
C99 C100 1.364 . A
C100 C101 1.393 . A
C101 C102 1.324 . A
C102 N111 1.352 . A
S103 Cu112 2.263 . S
S103 Cu113 2.294 . S
S103 Mo115 2.261 . S
S104 Cu113 2.278 . S
S104 Cu114 2.277 . S
S104 Mo115 2.278 . S
S105 Cu112 2.302 . S
S105 Cu114 2.310 . S
S105 Mo115 2.253 . S
I106 Cu112 2.427 . S
N107 Cu114 2.070 . S
N108 Cu114 2.050 . S
N109 Cu112 2.175 . S
N110 Cu113 2.103 . S
N111 Cu113 2.004 . S
Cu112 Mo115 2.710 . S
Cu113 Mo115 2.664 . S
Cu114 Mo115 2.712 . S
H116 C136 0.930 . S
H117 C137 0.930 . S
H118 C139 0.930 . S
H119 C140 0.930 . S
H120 C141 0.931 . S
H121 C142 0.931 . S
H122 C144 0.929 . S
H123 C145 0.930 . S
H124 C146 0.930 . S
H125 C147 0.929 . S
H126 C149 0.931 . S
H127 C150 0.929 . S
H128 C151 0.931 . S
H129 C152 0.930 . S
H130 C154 0.931 . S
H131 C155 0.930 . S
H132 C156 0.930 . S
H133 C157 0.930 . S
H134 C159 0.930 . S
H135 C160 0.932 . S
C136 C137 1.397 . A
C136 N165 1.336 . A
C137 C138 1.352 . A
C138 C139 1.391 . A
C139 C140 1.343 . A
C140 N165 1.340 . A
C141 C142 1.338 . A
C141 N166 1.347 . A
C142 C143 1.369 . A
C143 C144 1.403 . A
C144 C145 1.385 . A
C145 N166 1.312 . A
C146 C147 1.382 . A
C146 N167 1.287 . A
C147 C148 1.413 . A
C148 C149 1.411 . A
C149 C150 1.372 . A
C150 N167 1.361 . A
C151 C152 1.290 . A
C151 N168 1.367 . A
C152 C153 1.406 1_556 A
C153 C154 1.364 . A
C154 C155 1.397 1_554 A
C155 N168 1.325 . A
C156 C157 1.370 . A
C156 N169 1.357 . A
C157 C158 1.364 . A
C158 C159 1.393 . A
C159 C160 1.324 . A
C160 N169 1.352 . A
S161 Cu170 2.263 . S
S161 Cu171 2.294 . S
S161 Mo173 2.261 . S
S162 Cu171 2.278 . S
S162 Cu172 2.277 . S
S162 Mo173 2.278 . S
S163 Cu170 2.302 . S
S163 Cu172 2.310 . S
S163 Mo173 2.253 . S
I164 Cu170 2.427 . S
N165 Cu172 2.070 . S
N166 Cu172 2.050 . S
N167 Cu170 2.175 . S
N168 Cu171 2.103 . S
N169 Cu171 2.004 . S
Cu170 Mo173 2.710 . S
Cu171 Mo173 2.664 . S
Cu172 Mo173 2.712 . S
H174 C194 0.930 . S
H175 C195 0.930 . S
H176 C197 0.930 . S
H177 C198 0.930 . S
H178 C199 0.931 . S
H179 C200 0.931 . S
H180 C202 0.929 . S
H181 C203 0.930 . S
H182 C204 0.930 . S
H183 C205 0.929 . S
H184 C207 0.931 . S
H185 C208 0.929 . S
H186 C209 0.931 . S
H187 C210 0.930 . S
H188 C212 0.931 . S
H189 C213 0.930 . S
H190 C214 0.930 . S
H191 C215 0.930 . S
H192 C217 0.930 . S
H193 C218 0.932 . S
C194 C195 1.397 . A
C194 N223 1.336 . A
C195 C196 1.352 . A
C196 C197 1.391 . A
C197 C198 1.343 . A
C198 N223 1.340 . A
C199 C200 1.338 . A
C199 N224 1.347 . A
C200 C201 1.369 . A
C201 C202 1.403 . A
C202 C203 1.385 . A
C203 N224 1.312 . A
C204 C205 1.382 . A
C204 N225 1.287 . A
C205 C206 1.413 . A
C206 C207 1.411 . A
C207 C208 1.372 . A
C208 N225 1.361 . A
C209 C210 1.290 . A
C209 N226 1.367 . A
C210 C211 1.406 . A
C211 C212 1.364 . A
C212 C213 1.397 . A
C213 N226 1.325 . A
C214 C215 1.370 . A
C214 N227 1.357 . A
C215 C216 1.364 . A
C216 C217 1.393 . A
C217 C218 1.324 . A
C218 N227 1.352 . A
S219 Cu228 2.263 . S
S219 Cu229 2.294 . S
S219 Mo231 2.261 . S
S220 Cu229 2.278 . S
S220 Cu230 2.277 . S
S220 Mo231 2.278 . S
S221 Cu228 2.302 . S
S221 Cu230 2.310 . S
S221 Mo231 2.253 . S
I222 Cu228 2.427 . S
N223 Cu230 2.070 . S
N224 Cu230 2.050 . S
N225 Cu228 2.175 . S
N226 Cu229 2.103 . S
N227 Cu229 2.004 . S
Cu228 Mo231 2.710 . S
Cu229 Mo231 2.664 . S
Cu230 Mo231 2.712 . S
H232 C252 0.930 . S
H233 C253 0.930 . S
H234 C255 0.930 . S
H235 C256 0.930 . S
H236 C257 0.931 . S
H237 C258 0.931 . S
H238 C260 0.929 . S
H239 C261 0.930 . S
H240 C262 0.930 . S
H241 C263 0.929 . S
H242 C265 0.931 . S
H243 C266 0.929 . S
H244 C267 0.931 . S
H245 C268 0.930 . S
H246 C270 0.931 . S
H247 C271 0.930 . S
H248 C272 0.930 . S
H249 C273 0.930 . S
H250 C275 0.930 . S
H251 C276 0.932 . S
C252 C253 1.397 . A
C252 N281 1.336 . A
C253 C254 1.352 . A
C254 C255 1.391 . A
C255 C256 1.343 . A
C256 N281 1.340 . A
C257 C258 1.338 . A
C257 N282 1.347 . A
C258 C259 1.369 . A
C259 C260 1.403 . A
C260 C261 1.385 . A
C261 N282 1.312 . A
C262 C263 1.382 . A
C262 N283 1.287 . A
C263 C264 1.413 . A
C264 C265 1.411 . A
C265 C266 1.372 . A
C266 N283 1.361 . A
C267 C268 1.290 . A
C267 N284 1.367 . A
C268 C269 1.406 . A
C269 C270 1.364 . A
C270 C271 1.397 . A
C271 N284 1.325 . A
C272 C273 1.370 . A
C272 N285 1.357 . A
C273 C274 1.364 . A
C274 C275 1.393 . A
C275 C276 1.324 . A
C276 N285 1.352 . A
S277 Cu286 2.263 . S
S277 Cu287 2.294 . S
S277 Mo289 2.261 . S
S278 Cu287 2.278 . S
S278 Cu288 2.277 . S
S278 Mo289 2.278 . S
S279 Cu286 2.302 . S
S279 Cu288 2.310 . S
S279 Mo289 2.253 . S
I280 Cu286 2.427 . S
N281 Cu288 2.070 . S
N282 Cu288 2.050 . S
N283 Cu286 2.175 . S
N284 Cu287 2.103 . S
N285 Cu287 2.004 . S
Cu286 Mo289 2.710 . S
Cu287 Mo289 2.664 . S
Cu288 Mo289 2.712 . S
H290 C310 0.930 . S
H291 C311 0.930 . S
H292 C313 0.930 . S
H293 C314 0.930 . S
H294 C315 0.931 . S
H295 C316 0.931 . S
H296 C318 0.929 . S
H297 C319 0.930 . S
H298 C320 0.930 . S
H299 C321 0.929 . S
H300 C323 0.931 . S
H301 C324 0.929 . S
H302 C325 0.931 . S
H303 C326 0.930 . S
H304 C328 0.931 . S
H305 C329 0.930 . S
H306 C330 0.930 . S
H307 C331 0.930 . S
H308 C333 0.930 . S
H309 C334 0.932 . S
C310 C311 1.397 . A
C310 N339 1.336 . A
C311 C312 1.352 . A
C312 C313 1.391 . A
C313 C314 1.343 . A
C314 N339 1.340 . A
C315 C316 1.338 . A
C315 N340 1.347 . A
C316 C317 1.369 . A
C317 C318 1.403 . A
C318 C319 1.385 . A
C319 N340 1.312 . A
C320 C321 1.382 . A
C320 N341 1.287 . A
C321 C322 1.413 . A
C322 C323 1.411 . A
C323 C324 1.372 . A
C324 N341 1.361 . A
C325 C326 1.290 . A
C325 N342 1.367 . A
C326 C327 1.406 1_554 A
C327 C328 1.364 . A
C328 C329 1.397 1_556 A
C329 N342 1.325 . A
C330 C331 1.370 . A
C330 N343 1.357 . A
C331 C332 1.364 . A
C332 C333 1.393 . A
C333 C334 1.324 . A
C334 N343 1.352 . A
S335 Cu344 2.263 . S
S335 Cu345 2.294 . S
S335 Mo347 2.261 . S
S336 Cu345 2.278 . S
S336 Cu346 2.277 . S
S336 Mo347 2.278 . S
S337 Cu344 2.302 . S
S337 Cu346 2.310 . S
S337 Mo347 2.253 . S
I338 Cu344 2.427 . S
N339 Cu346 2.070 . S
N340 Cu346 2.050 . S
N341 Cu344 2.175 . S
N342 Cu345 2.103 . S
N343 Cu345 2.004 . S
Cu344 Mo347 2.710 . S
Cu345 Mo347 2.664 . S
Cu346 Mo347 2.712 . S
N348 N349 1.540 1_655 D
N350 N351 1.540 . D
N352 N353 1.540 1_565 D
N354 N355 1.540 . D
N356 N357 1.540 . D
N358 N359 1.540 . D
N360 N361 1.540 . D
N362 N363 1.540 . D
N364 N365 1.540 . D
N366 N367 1.540 . D
N368 N369 1.540 . D
N370 N371 1.540 . D
N372 N373 1.540 . D
N374 N375 1.540 . D
N376 N377 1.540 . D
N348 C143 2.575 . S
N349 C27 2.575 . S
N350 C85 2.575 . S
N351 C201 2.575 . S
N352 C317 2.576 . S
N353 C259 2.576 . S
N354 C32 0.992 . S
N355 C138 1.035 . S
N356 C90 0.993 1_545 S
N357 C196 1.036 . S
N358 C22 1.035 . S
N359 C148 0.992 1_565 S
N360 C206 0.993 1_455 S
N361 C80 1.036 . S
N362 C264 0.992 . S
N363 C312 1.035 . S
N364 C322 0.992 1_655 S
N365 C254 1.035 . S
N366 C211 2.075 . S
N367 C42 2.140 1_655 S
N368 C269 2.075 . S
N369 C100 2.140 . S
N370 C158 2.140 1_455 S
N371 C327 2.075 . S
N372 C216 2.140 . S
N373 C37 2.075 . S
N374 C274 2.140 1_565 S
N375 C95 2.075 . S
N376 C332 2.140 1_545 S
N377 C153 2.075 . S
