# Generated by pormake.
# Topology zfh, (5)-cn, num edge types: 1
# Building blocks:
#     Node 0, Type 0, BuildingBlock: N172, # of connection points: 5
#     Node 1, Type 0, BuildingBlock: N172, # of connection points: 5
#     Node 2, Type 0, BuildingBlock: N172, # of connection points: 5
#     Node 3, Type 0, BuildingBlock: N172, # of connection points: 5
#     Node 4, Type 0, BuildingBlock: N172, # of connection points: 5
#     Node 5, Type 0, BuildingBlock: N172, # of connection points: 5
#     Node 6, Type 0, BuildingBlock: N172, # of connection points: 5
#     Node 7, Type 0, BuildingBlock: N172, # of connection points: 5
#     Node 8, Type 0, BuildingBlock: N172, # of connection points: 5
#     Node 9, Type 0, BuildingBlock: N172, # of connection points: 5
#     Node 10, Type 0, BuildingBlock: N172, # of connection points: 5
#     Node 11, Type 0, BuildingBlock: N172, # of connection points: 5
#     Node 12, Type 0, BuildingBlock: N172, # of connection points: 5
#     Node 13, Type 0, BuildingBlock: N172, # of connection points: 5
#     Node 14, Type 0, BuildingBlock: N172, # of connection points: 5
#     Node 15, Type 0, BuildingBlock: N172, # of connection points: 5
#     Edge 16, Type (0, 0), BuildingBlock: E76, # of connection points: 2
#     Edge 17, Type (0, 0), BuildingBlock: E76, # of connection points: 2
#     Edge 18, Type (0, 0), BuildingBlock: E76, # of connection points: 2
#     Edge 19, Type (0, 0), BuildingBlock: E76, # of connection points: 2
#     Edge 20, Type (0, 0), BuildingBlock: E76, # of connection points: 2
#     Edge 21, Type (0, 0), BuildingBlock: E76, # of connection points: 2
#     Edge 22, Type (0, 0), BuildingBlock: E76, # of connection points: 2
#     Edge 23, Type (0, 0), BuildingBlock: E76, # of connection points: 2
#     Edge 24, Type (0, 0), BuildingBlock: E76, # of connection points: 2
#     Edge 25, Type (0, 0), BuildingBlock: E76, # of connection points: 2
#     Edge 26, Type (0, 0), BuildingBlock: E76, # of connection points: 2
#     Edge 27, Type (0, 0), BuildingBlock: E76, # of connection points: 2
#     Edge 28, Type (0, 0), BuildingBlock: E76, # of connection points: 2
#     Edge 29, Type (0, 0), BuildingBlock: E76, # of connection points: 2
#     Edge 30, Type (0, 0), BuildingBlock: E76, # of connection points: 2
#     Edge 31, Type (0, 0), BuildingBlock: E76, # of connection points: 2
#     Edge 32, Type (0, 0), BuildingBlock: E76, # of connection points: 2
#     Edge 33, Type (0, 0), BuildingBlock: E76, # of connection points: 2
#     Edge 34, Type (0, 0), BuildingBlock: E76, # of connection points: 2
#     Edge 35, Type (0, 0), BuildingBlock: E76, # of connection points: 2
#     Edge 36, Type (0, 0), BuildingBlock: E76, # of connection points: 2
#     Edge 37, Type (0, 0), BuildingBlock: E76, # of connection points: 2
#     Edge 38, Type (0, 0), BuildingBlock: E76, # of connection points: 2
#     Edge 39, Type (0, 0), BuildingBlock: E76, # of connection points: 2
#     Edge 40, Type (0, 0), BuildingBlock: E76, # of connection points: 2
#     Edge 41, Type (0, 0), BuildingBlock: E76, # of connection points: 2
#     Edge 42, Type (0, 0), BuildingBlock: E76, # of connection points: 2
#     Edge 43, Type (0, 0), BuildingBlock: E76, # of connection points: 2
#     Edge 44, Type (0, 0), BuildingBlock: E76, # of connection points: 2
#     Edge 45, Type (0, 0), BuildingBlock: E76, # of connection points: 2
#     Edge 46, Type (0, 0), BuildingBlock: E76, # of connection points: 2
#     Edge 47, Type (0, 0), BuildingBlock: E76, # of connection points: 2
#     Edge 48, Type (0, 0), BuildingBlock: E76, # of connection points: 2
#     Edge 49, Type (0, 0), BuildingBlock: E76, # of connection points: 2
#     Edge 50, Type (0, 0), BuildingBlock: E76, # of connection points: 2
#     Edge 51, Type (0, 0), BuildingBlock: E76, # of connection points: 2
#     Edge 52, Type (0, 0), BuildingBlock: E76, # of connection points: 2
#     Edge 53, Type (0, 0), BuildingBlock: E76, # of connection points: 2
#     Edge 54, Type (0, 0), BuildingBlock: E76, # of connection points: 2
#     Edge 55, Type (0, 0), BuildingBlock: E76, # of connection points: 2
# Relax obj value: 0.321
# Max RMSD: 0.276
# Mean RMSD: 0.276
data_zfh+N172+E76
_symmetry_space_group_name_H-M    P1
_symmetry_Int_Tables_number       1
_symmetry_cell_setting            triclinic
loop_
_symmetry_equiv_pos_as_xyz
'x, y, z'
_cell_length_a     28.983
_cell_length_b     28.983
_cell_length_c     31.088
_cell_angle_alpha  89.997
_cell_angle_beta   89.997
_cell_angle_gamma  89.997
loop_
_atom_site_label
_atom_site_type_symbol
_atom_site_fract_x
_atom_site_fract_y
_atom_site_fract_z
_atom_type_partial_charge
O0 O 0.97528 0.73510 0.57791 0.00000
O1 O 0.96776 0.70467 0.64445 0.00000
Zn2 Zn 0.97962 0.63816 0.64083 0.00000
Zn3 Zn 0.98545 0.68000 0.53706 0.00000
O4 O 0.01827 0.64272 0.58621 0.00000
Zn5 Zn 0.07934 0.66976 0.59444 0.00000
C6 C 0.07170 0.67464 0.68442 0.00000
O7 O 0.12453 0.62868 0.56683 0.00000
C8 C 0.07284 0.73935 0.53519 0.00000
O9 O 0.09954 0.68227 0.65315 0.00000
O10 O 0.03757 0.64923 0.68399 0.00000
O11 O 0.07591 0.57057 0.55946 0.00000
C12 C 0.90222 0.63248 0.57540 0.00000
O13 O 0.92214 0.65222 0.54625 0.00000
O14 O 0.91814 0.62128 0.61086 0.00000
C15 C 0.96763 0.73887 0.61781 0.00000
C16 C 0.11174 0.59060 0.55237 0.00000
H17 H 0.02288 0.61083 0.57545 0.00000
O18 O 0.04838 0.71097 0.51575 0.00000
O19 O 0.09059 0.73190 0.57184 0.00000
O20 O 0.76490 0.97528 0.57790 0.00000
O21 O 0.79533 0.96776 0.64444 0.00000
Zn22 Zn 0.86183 0.97961 0.64081 0.00000
Zn23 Zn 0.82000 0.98545 0.53705 0.00000
O24 O 0.85728 0.01826 0.58620 0.00000
Zn25 Zn 0.83024 0.07934 0.59442 0.00000
C26 C 0.82534 0.07171 0.68441 0.00000
O27 O 0.87131 0.12452 0.56681 0.00000
C28 C 0.76065 0.07284 0.53518 0.00000
O29 O 0.81772 0.09954 0.65313 0.00000
O30 O 0.85076 0.03757 0.68397 0.00000
O31 O 0.92942 0.07590 0.55944 0.00000
C32 C 0.86752 0.90221 0.57539 0.00000
O33 O 0.84779 0.92213 0.54623 0.00000
O34 O 0.87872 0.91814 0.61084 0.00000
C35 C 0.76113 0.96763 0.61780 0.00000
C36 C 0.90939 0.11173 0.55234 0.00000
H37 H 0.88916 0.02288 0.57543 0.00000
O38 O 0.78903 0.04837 0.51574 0.00000
O39 O 0.76809 0.09059 0.57182 0.00000
O40 O 0.02472 0.23510 0.92210 0.00000
O41 O 0.03224 0.20467 0.85556 0.00000
Zn42 Zn 0.02038 0.13817 0.85919 0.00000
Zn43 Zn 0.01455 0.18000 0.96295 0.00000
O44 O 0.98173 0.14273 0.91380 0.00000
Zn45 Zn 0.92066 0.16977 0.90558 0.00000
C46 C 0.92829 0.17466 0.81559 0.00000
O47 O 0.87548 0.12869 0.93319 0.00000
C48 C 0.92716 0.23935 0.96482 0.00000
O49 O 0.90045 0.18228 0.84687 0.00000
O50 O 0.96243 0.14925 0.81603 0.00000
O51 O 0.92410 0.07058 0.94056 0.00000
C52 C 0.09778 0.13248 0.92461 0.00000
O53 O 0.07787 0.15222 0.95377 0.00000
O54 O 0.08186 0.12128 0.88916 0.00000
C55 C 0.03237 0.23888 0.88220 0.00000
C56 C 0.88827 0.09061 0.94766 0.00000
H57 H 0.97712 0.11084 0.92457 0.00000
O58 O 0.95163 0.21097 0.98426 0.00000
O59 O 0.90941 0.23191 0.92818 0.00000
O60 O 0.23510 0.02472 0.42210 0.00000
O61 O 0.20467 0.03224 0.35556 0.00000
Zn62 Zn 0.13817 0.02038 0.35918 0.00000
Zn63 Zn 0.18000 0.01455 0.46295 0.00000
O64 O 0.14272 0.98173 0.41380 0.00000
Zn65 Zn 0.16976 0.92066 0.40558 0.00000
C66 C 0.17466 0.92829 0.31559 0.00000
O67 O 0.12869 0.87548 0.43319 0.00000
C68 C 0.23935 0.92716 0.46482 0.00000
O69 O 0.18228 0.90045 0.34687 0.00000
O70 O 0.14924 0.96243 0.31603 0.00000
O71 O 0.07058 0.92410 0.44056 0.00000
C72 C 0.13248 0.09778 0.42461 0.00000
O73 O 0.15221 0.07787 0.45377 0.00000
O74 O 0.12128 0.08186 0.38916 0.00000
C75 C 0.23887 0.03237 0.38219 0.00000
C76 C 0.09061 0.88826 0.44766 0.00000
H77 H 0.11084 0.97712 0.42457 0.00000
O78 O 0.21097 0.95163 0.48426 0.00000
O79 O 0.23191 0.90941 0.42818 0.00000
O80 O 0.97528 0.76490 0.07790 0.00000
O81 O 0.96776 0.79533 0.14444 0.00000
Zn82 Zn 0.97961 0.86184 0.14082 0.00000
Zn83 Zn 0.98545 0.82000 0.03705 0.00000
O84 O 0.01826 0.85728 0.08620 0.00000
Zn85 Zn 0.07934 0.83024 0.09442 0.00000
C86 C 0.07171 0.82535 0.18441 0.00000
O87 O 0.12452 0.87132 0.06681 0.00000
C88 C 0.07284 0.76065 0.03518 0.00000
O89 O 0.09955 0.81772 0.15313 0.00000
O90 O 0.03757 0.85076 0.18397 0.00000
O91 O 0.07590 0.92943 0.05944 0.00000
C92 C 0.90222 0.86753 0.07539 0.00000
O93 O 0.92213 0.84779 0.04623 0.00000
O94 O 0.91814 0.87872 0.11084 0.00000
C95 C 0.96763 0.76113 0.11781 0.00000
C96 C 0.11173 0.90939 0.05234 0.00000
H97 H 0.02288 0.88917 0.07543 0.00000
O98 O 0.04837 0.78903 0.01574 0.00000
O99 O 0.09059 0.76809 0.07182 0.00000
O100 O 0.26492 0.47528 0.42211 0.00000
O101 O 0.29535 0.46776 0.35557 0.00000
Zn102 Zn 0.36186 0.47962 0.35920 0.00000
Zn103 Zn 0.32002 0.48545 0.46296 0.00000
O104 O 0.35730 0.51826 0.41381 0.00000
Zn105 Zn 0.33026 0.57934 0.40558 0.00000
C106 C 0.32537 0.57171 0.31560 0.00000
O107 O 0.37133 0.62452 0.43319 0.00000
C108 C 0.26067 0.57284 0.46483 0.00000
O109 O 0.31775 0.59955 0.34688 0.00000
O110 O 0.35078 0.53758 0.31604 0.00000
O111 O 0.42944 0.57590 0.44057 0.00000
C112 C 0.36754 0.40222 0.42463 0.00000
O113 O 0.34780 0.42213 0.45378 0.00000
O114 O 0.37874 0.41814 0.38917 0.00000
C115 C 0.26115 0.46763 0.38221 0.00000
C116 C 0.40941 0.61173 0.44766 0.00000
H117 H 0.38919 0.52288 0.42458 0.00000
O118 O 0.28905 0.54837 0.48428 0.00000
O119 O 0.26811 0.59059 0.42819 0.00000
O120 O 0.02472 0.26490 0.42209 0.00000
O121 O 0.03224 0.29534 0.35555 0.00000
Zn122 Zn 0.02038 0.36184 0.35917 0.00000
Zn123 Zn 0.01455 0.32000 0.46294 0.00000
O124 O 0.98173 0.35728 0.41378 0.00000
Zn125 Zn 0.92066 0.33025 0.40556 0.00000
C126 C 0.92830 0.32536 0.31557 0.00000
O127 O 0.87547 0.37132 0.43317 0.00000
C128 C 0.92716 0.26066 0.46481 0.00000
O129 O 0.90046 0.31774 0.34685 0.00000
O130 O 0.96243 0.35077 0.31601 0.00000
O131 O 0.92409 0.42943 0.44054 0.00000
C132 C 0.09778 0.36753 0.42460 0.00000
O133 O 0.07786 0.34779 0.45375 0.00000
O134 O 0.08186 0.37872 0.38914 0.00000
C135 C 0.03237 0.26113 0.38219 0.00000
C136 C 0.88826 0.40940 0.44763 0.00000
H137 H 0.97712 0.38917 0.42455 0.00000
O138 O 0.95163 0.28903 0.48425 0.00000
O139 O 0.90941 0.26810 0.42816 0.00000
O140 O 0.47528 0.23510 0.42212 0.00000
O141 O 0.46776 0.20467 0.35558 0.00000
Zn142 Zn 0.47962 0.13816 0.35921 0.00000
Zn143 Zn 0.48545 0.17999 0.46297 0.00000
O144 O 0.51827 0.14272 0.41383 0.00000
Zn145 Zn 0.57935 0.16975 0.40560 0.00000
C146 C 0.57172 0.17464 0.31561 0.00000
O147 O 0.62453 0.12867 0.43321 0.00000
C148 C 0.57284 0.23934 0.46484 0.00000
O149 O 0.59955 0.18226 0.34689 0.00000
O150 O 0.53758 0.14923 0.31605 0.00000
O151 O 0.57590 0.07057 0.44059 0.00000
C152 C 0.40222 0.13248 0.42464 0.00000
O153 O 0.42213 0.15221 0.45379 0.00000
O154 O 0.41814 0.12128 0.38919 0.00000
C155 C 0.46763 0.23887 0.38222 0.00000
C156 C 0.61174 0.09060 0.44768 0.00000
H157 H 0.52288 0.11083 0.42459 0.00000
O158 O 0.54837 0.21096 0.48429 0.00000
O159 O 0.59059 0.23190 0.42820 0.00000
O160 O 0.73510 0.97528 0.07791 0.00000
O161 O 0.70467 0.96775 0.14445 0.00000
Zn162 Zn 0.63816 0.97961 0.14083 0.00000
Zn163 Zn 0.68000 0.98545 0.03706 0.00000
O164 O 0.64272 0.01827 0.08621 0.00000
Zn165 Zn 0.66976 0.07934 0.09444 0.00000
C166 C 0.67464 0.07170 0.18442 0.00000
O167 O 0.62868 0.12453 0.06683 0.00000
C168 C 0.73935 0.07284 0.03519 0.00000
O169 O 0.68227 0.09954 0.15315 0.00000
O170 O 0.64923 0.03757 0.18399 0.00000
O171 O 0.57057 0.07590 0.05946 0.00000
C172 C 0.63248 0.90222 0.07540 0.00000
O173 O 0.65222 0.92213 0.04625 0.00000
O174 O 0.62128 0.91814 0.11086 0.00000
C175 C 0.73887 0.96763 0.11781 0.00000
C176 C 0.59060 0.11174 0.05237 0.00000
H177 H 0.61083 0.02288 0.07545 0.00000
O178 O 0.71097 0.04837 0.01575 0.00000
O179 O 0.73190 0.09059 0.07184 0.00000
O180 O 0.52471 0.73508 0.07789 0.00000
O181 O 0.53223 0.70465 0.14443 0.00000
Zn182 Zn 0.52038 0.63814 0.14080 0.00000
Zn183 Zn 0.51455 0.67998 0.03704 0.00000
O184 O 0.48173 0.64270 0.08619 0.00000
Zn185 Zn 0.42065 0.66974 0.09441 0.00000
C186 C 0.42829 0.67463 0.18440 0.00000
O187 O 0.37547 0.62867 0.06681 0.00000
C188 C 0.42716 0.73933 0.03517 0.00000
O189 O 0.40045 0.68225 0.15312 0.00000
O190 O 0.46242 0.64922 0.18396 0.00000
O191 O 0.42410 0.57056 0.05943 0.00000
C192 C 0.59778 0.63246 0.07537 0.00000
O193 O 0.57787 0.65220 0.04622 0.00000
O194 O 0.58186 0.62126 0.11083 0.00000
C195 C 0.53236 0.73885 0.11779 0.00000
C196 C 0.38826 0.59059 0.05234 0.00000
H197 H 0.47712 0.61082 0.07542 0.00000
O198 O 0.45163 0.71096 0.01572 0.00000
O199 O 0.40940 0.73189 0.07181 0.00000
O200 O 0.76490 0.52472 0.07788 0.00000
O201 O 0.79534 0.53224 0.14442 0.00000
Zn202 Zn 0.86184 0.52038 0.14079 0.00000
Zn203 Zn 0.82001 0.51455 0.03703 0.00000
O204 O 0.85728 0.48173 0.08618 0.00000
Zn205 Zn 0.83025 0.42065 0.09440 0.00000
C206 C 0.82536 0.42828 0.18439 0.00000
O207 O 0.87133 0.37547 0.06679 0.00000
C208 C 0.76066 0.42716 0.03516 0.00000
O209 O 0.81774 0.40045 0.15311 0.00000
O210 O 0.85077 0.46242 0.18395 0.00000
O211 O 0.92943 0.42410 0.05941 0.00000
C212 C 0.86753 0.59778 0.07536 0.00000
O213 O 0.84779 0.57787 0.04621 0.00000
O214 O 0.87872 0.58185 0.11081 0.00000
C215 C 0.76113 0.53237 0.11778 0.00000
C216 C 0.90940 0.38826 0.05232 0.00000
H217 H 0.88917 0.47712 0.07541 0.00000
O218 O 0.78904 0.45163 0.01571 0.00000
O219 O 0.76810 0.40941 0.07180 0.00000
O220 O 0.52472 0.76491 0.57788 0.00000
O221 O 0.53224 0.79534 0.64442 0.00000
Zn222 Zn 0.52038 0.86184 0.64079 0.00000
Zn223 Zn 0.51455 0.82001 0.53703 0.00000
O224 O 0.48173 0.85729 0.58618 0.00000
Zn225 Zn 0.42065 0.83025 0.59440 0.00000
C226 C 0.42829 0.82536 0.68439 0.00000
O227 O 0.37547 0.87133 0.56679 0.00000
C228 C 0.42716 0.76066 0.53516 0.00000
O229 O 0.40045 0.81774 0.65311 0.00000
O230 O 0.46242 0.85077 0.68395 0.00000
O231 O 0.42410 0.92944 0.55942 0.00000
C232 C 0.59778 0.86753 0.57536 0.00000
O233 O 0.57787 0.84779 0.54621 0.00000
O234 O 0.58186 0.87872 0.61082 0.00000
C235 C 0.53237 0.76113 0.61778 0.00000
C236 C 0.38826 0.90941 0.55232 0.00000
H237 H 0.47712 0.88918 0.57541 0.00000
O238 O 0.45163 0.78904 0.51572 0.00000
O239 O 0.40941 0.76810 0.57181 0.00000
O240 O 0.73508 0.52471 0.57789 0.00000
O241 O 0.70465 0.53223 0.64443 0.00000
Zn242 Zn 0.63814 0.52038 0.64080 0.00000
Zn243 Zn 0.67998 0.51455 0.53704 0.00000
O244 O 0.64270 0.48173 0.58619 0.00000
Zn245 Zn 0.66974 0.42065 0.59441 0.00000
C246 C 0.67463 0.42828 0.68440 0.00000
O247 O 0.62867 0.37547 0.56681 0.00000
C248 C 0.73933 0.42716 0.53517 0.00000
O249 O 0.68225 0.40045 0.65312 0.00000
O250 O 0.64922 0.46242 0.68396 0.00000
O251 O 0.57056 0.42410 0.55943 0.00000
C252 C 0.63246 0.59778 0.57537 0.00000
O253 O 0.65220 0.57786 0.54622 0.00000
O254 O 0.62126 0.58186 0.61083 0.00000
C255 C 0.73885 0.53236 0.61779 0.00000
C256 C 0.59059 0.38826 0.55234 0.00000
H257 H 0.61081 0.47712 0.57542 0.00000
O258 O 0.71095 0.45162 0.51572 0.00000
O259 O 0.73189 0.40940 0.57181 0.00000
O260 O 0.26490 0.02472 0.92209 0.00000
O261 O 0.29534 0.03224 0.85555 0.00000
Zn262 Zn 0.36184 0.02038 0.85917 0.00000
Zn263 Zn 0.32000 0.01455 0.96294 0.00000
O264 O 0.35728 0.98173 0.91379 0.00000
Zn265 Zn 0.33025 0.92065 0.90556 0.00000
C266 C 0.32536 0.92829 0.81558 0.00000
O267 O 0.37132 0.87547 0.93317 0.00000
C268 C 0.26065 0.92716 0.96481 0.00000
O269 O 0.31774 0.90045 0.84685 0.00000
O270 O 0.35077 0.96243 0.81601 0.00000
O271 O 0.42943 0.92409 0.94054 0.00000
C272 C 0.36752 0.09778 0.92460 0.00000
O273 O 0.34779 0.07786 0.95375 0.00000
O274 O 0.37872 0.08186 0.88914 0.00000
C275 C 0.26113 0.03237 0.88219 0.00000
C276 C 0.40940 0.88826 0.94763 0.00000
H277 H 0.38917 0.97711 0.92455 0.00000
O278 O 0.28903 0.95162 0.98425 0.00000
O279 O 0.26810 0.90941 0.92816 0.00000
O280 O 0.47528 0.26492 0.92211 0.00000
O281 O 0.46776 0.29536 0.85557 0.00000
Zn282 Zn 0.47962 0.36186 0.85920 0.00000
Zn283 Zn 0.48545 0.32002 0.96296 0.00000
O284 O 0.51827 0.35730 0.91381 0.00000
Zn285 Zn 0.57934 0.33026 0.90558 0.00000
C286 C 0.57171 0.32537 0.81560 0.00000
O287 O 0.62452 0.37134 0.93319 0.00000
C288 C 0.57284 0.26067 0.96483 0.00000
O289 O 0.59955 0.31775 0.84688 0.00000
O290 O 0.53758 0.35079 0.81604 0.00000
O291 O 0.57590 0.42945 0.94057 0.00000
C292 C 0.40222 0.36755 0.92463 0.00000
O293 O 0.42213 0.34781 0.95378 0.00000
O294 O 0.41814 0.37874 0.88917 0.00000
C295 C 0.46763 0.26115 0.88221 0.00000
C296 C 0.61173 0.40941 0.94766 0.00000
H297 H 0.52288 0.38919 0.92458 0.00000
O298 O 0.54837 0.28905 0.98427 0.00000
O299 O 0.59059 0.26811 0.92818 0.00000
O300 O 0.23510 0.47528 0.92212 0.00000
O301 O 0.20466 0.46776 0.85558 0.00000
Zn302 Zn 0.13816 0.47962 0.85921 0.00000
Zn303 Zn 0.17999 0.48545 0.96297 0.00000
O304 O 0.14272 0.51827 0.91383 0.00000
Zn305 Zn 0.16975 0.57934 0.90560 0.00000
C306 C 0.17464 0.57171 0.81561 0.00000
O307 O 0.12867 0.62452 0.93321 0.00000
C308 C 0.23934 0.57283 0.96484 0.00000
O309 O 0.18226 0.59955 0.84689 0.00000
O310 O 0.14923 0.53758 0.81605 0.00000
O311 O 0.07057 0.57590 0.94059 0.00000
C312 C 0.13248 0.40222 0.92464 0.00000
O313 O 0.15221 0.42213 0.95379 0.00000
O314 O 0.12128 0.41814 0.88919 0.00000
C315 C 0.23887 0.46763 0.88222 0.00000
C316 C 0.09060 0.61174 0.94768 0.00000
H317 H 0.11083 0.52288 0.92459 0.00000
O318 O 0.21096 0.54837 0.98429 0.00000
O319 O 0.23190 0.59059 0.92820 0.00000
H320 H 0.82083 0.50424 0.60648 0.00000
H321 H 0.88178 0.54670 0.58382 0.00000
H322 H 0.73337 0.70533 0.59793 0.00000
C323 C 0.77812 0.60716 0.61927 0.00000
C324 C 0.77762 0.55870 0.62180 0.00000
C325 C 0.81391 0.63073 0.60066 0.00000
C326 C 0.81851 0.53693 0.60610 0.00000
C327 C 0.85317 0.60925 0.58402 0.00000
C328 C 0.85404 0.56249 0.59064 0.00000
O329 O 0.80513 0.67747 0.60198 0.00000
O330 O 0.74599 0.63780 0.63370 0.00000
C331 C 0.75572 0.68315 0.61106 0.00000
H332 H 0.86976 0.79972 0.54277 0.00000
H333 H 0.90390 0.74117 0.57904 0.00000
H334 H 0.99399 0.90926 0.67700 0.00000
C335 C 0.91753 0.85827 0.62017 0.00000
C336 C 0.89015 0.85272 0.58318 0.00000
C337 C 0.94167 0.82232 0.63785 0.00000
C338 C 0.88739 0.80637 0.56776 0.00000
C339 C 0.94016 0.77733 0.62185 0.00000
C340 C 0.90976 0.77176 0.58846 0.00000
O341 O 0.96597 0.83755 0.67325 0.00000
O342 O 0.92482 0.89710 0.64393 0.00000
C343 C 0.96752 0.88814 0.67091 0.00000
H344 H 0.17274 0.04601 0.83463 0.00000
H345 H 0.11802 0.09322 0.86235 0.00000
H346 H 0.26176 0.10022 0.01469 0.00000
C347 C 0.22882 0.08535 0.91755 0.00000
C348 C 0.22370 0.05944 0.87959 0.00000
C349 C 0.19276 0.10912 0.93548 0.00000
C350 C 0.17910 0.06267 0.86026 0.00000
C351 C 0.14875 0.11095 0.91728 0.00000
C352 C 0.14574 0.08930 0.87817 0.00000
O353 O 0.20720 0.13074 0.97262 0.00000
O354 O 0.26736 0.09166 0.94196 0.00000
C355 C 0.25106 0.10932 0.98532 0.00000
H356 H 0.16270 0.18532 0.39461 0.00000
H357 H 0.12150 0.24712 0.37195 0.00000
H358 H 0.95685 0.11341 0.41785 0.00000
C359 C 0.05996 0.15211 0.42327 0.00000
C360 C 0.10819 0.14805 0.42003 0.00000
C361 C 0.03635 0.18782 0.40456 0.00000
C362 C 0.13018 0.18553 0.39834 0.00000
C363 C 0.05779 0.22361 0.38212 0.00000
C364 C 0.10503 0.22143 0.38300 0.00000
O365 O 0.98974 0.18287 0.41221 0.00000
O366 O 0.02960 0.12391 0.44400 0.00000
C367 C 0.98215 0.13506 0.42620 0.00000
H368 H 0.82904 0.95962 0.16192 0.00000
H369 H 0.88801 0.92582 0.12596 0.00000
H370 H 0.72152 0.84696 0.01776 0.00000
C371 C 0.77235 0.91832 0.08019 0.00000
C372 C 0.77717 0.94331 0.11872 0.00000
C373 C 0.80827 0.89414 0.06253 0.00000
C374 C 0.82291 0.94369 0.13583 0.00000
C375 C 0.85259 0.89329 0.08011 0.00000
C376 C 0.85768 0.92150 0.11520 0.00000
O377 O 0.79381 0.87244 0.02542 0.00000
O378 O 0.73433 0.91366 0.05477 0.00000
C379 C 0.74314 0.87235 0.02594 0.00000
H380 H 0.45571 0.36795 0.44066 0.00000
H381 H 0.49497 0.31345 0.40341 0.00000
H382 H 0.29184 0.24876 0.36207 0.00000
C383 C 0.37026 0.32073 0.38899 0.00000
C384 C 0.39070 0.35315 0.41674 0.00000
C385 C 0.39496 0.28522 0.37120 0.00000
C386 C 0.43931 0.34758 0.42224 0.00000
C387 C 0.44220 0.27894 0.37779 0.00000
C388 C 0.46229 0.31345 0.40142 0.00000
O389 O 0.36636 0.25846 0.34602 0.00000
O390 O 0.32567 0.31838 0.37524 0.00000
C391 C 0.31867 0.26996 0.35786 0.00000
H392 H 0.11493 0.45276 0.40829 0.00000
H393 H 0.17227 0.48810 0.37134 0.00000
H394 H 0.27985 0.31009 0.43145 0.00000
C395 C 0.19070 0.36992 0.40791 0.00000
C396 C 0.14755 0.38989 0.41697 0.00000
C397 C 0.22596 0.39474 0.38984 0.00000
C398 C 0.14295 0.43668 0.40318 0.00000
C399 C 0.22188 0.44094 0.37771 0.00000
C400 C 0.17826 0.45838 0.38288 0.00000
O401 O 0.26427 0.36697 0.38515 0.00000
O402 O 0.20488 0.32566 0.41454 0.00000
C403 C 0.25718 0.32621 0.41243 0.00000
H404 H 0.28973 0.10401 0.33146 0.00000
H405 H 0.35358 0.13711 0.35997 0.00000
H406 H 0.29214 0.01692 0.51927 0.00000
C407 C 0.29773 0.04434 0.41981 0.00000
C408 C 0.27844 0.05616 0.37979 0.00000
C409 C 0.33314 0.06910 0.43769 0.00000
C410 C 0.30081 0.09372 0.35857 0.00000
C411 C 0.35393 0.10680 0.41753 0.00000
C412 C 0.33771 0.11487 0.37679 0.00000
O413 O 0.34475 0.05047 0.47705 0.00000
O414 O 0.28624 0.00886 0.44651 0.00000
C415 C 0.30651 0.02037 0.49021 0.00000
H416 H 0.56997 0.83307 0.02982 0.00000
H417 H 0.52525 0.78035 0.06380 0.00000
H418 H 0.66893 0.81912 0.21198 0.00000
C419 C 0.61202 0.84191 0.12652 0.00000
C420 C 0.60803 0.85373 0.08279 0.00000
C421 C 0.58773 0.80604 0.14415 0.00000
C422 C 0.57461 0.82739 0.05960 0.00000
C423 C 0.55622 0.77932 0.12105 0.00000
C424 C 0.54947 0.79430 0.07969 0.00000
O425 O 0.59871 0.80174 0.18713 0.00000
O426 O 0.63842 0.86210 0.15752 0.00000
C427 C 0.64147 0.82783 0.19431 0.00000
H428 H 0.66603 0.56893 0.03019 0.00000
H429 H 0.71874 0.52433 0.06431 0.00000
H430 H 0.68281 0.67079 0.21074 0.00000
C431 C 0.65860 0.61266 0.12633 0.00000
C432 C 0.64627 0.60804 0.08279 0.00000
C433 C 0.69447 0.58836 0.14398 0.00000
C434 C 0.67208 0.57403 0.05983 0.00000
C435 C 0.72067 0.55625 0.12108 0.00000
C436 C 0.70518 0.54894 0.07997 0.00000
O437 O 0.69933 0.60002 0.18675 0.00000
O438 O 0.63898 0.63974 0.15714 0.00000
C439 C 0.67367 0.64311 0.19356 0.00000
H440 H 0.83741 0.68439 0.10680 0.00000
H441 H 0.87842 0.74631 0.12948 0.00000
H442 H 0.04349 0.61504 0.07898 0.00000
C443 C 0.93989 0.65270 0.07589 0.00000
C444 C 0.89178 0.64808 0.07994 0.00000
C445 C 0.96350 0.68839 0.09461 0.00000
C446 C 0.86985 0.68501 0.10248 0.00000
C447 C 0.94216 0.72364 0.11788 0.00000
C448 C 0.89493 0.72095 0.11781 0.00000
O449 O 0.00999 0.68406 0.08607 0.00000
O450 O 0.97010 0.62513 0.05427 0.00000
C451 C 0.01779 0.63654 0.07136 0.00000
H452 H 0.70061 0.90634 0.67298 0.00000
H453 H 0.64790 0.86130 0.63935 0.00000
H454 H 0.69511 0.99673 0.48660 0.00000
C455 C 0.71366 0.94346 0.57495 0.00000
C456 C 0.72394 0.94130 0.61912 0.00000
C457 C 0.67777 0.91921 0.55729 0.00000
C458 C 0.69601 0.90968 0.64289 0.00000
C459 C 0.64952 0.88950 0.58088 0.00000
C460 C 0.66297 0.88440 0.62289 0.00000
O461 O 0.67515 0.92822 0.51380 0.00000
O462 O 0.73551 0.96785 0.54349 0.00000
C463 C 0.70254 0.96995 0.50563 0.00000
H464 H 0.62056 0.73339 0.64847 0.00000
H465 H 0.66070 0.67936 0.61146 0.00000
H466 H 0.45962 0.62791 0.55009 0.00000
C467 C 0.53836 0.69394 0.58741 0.00000
C468 C 0.55751 0.72347 0.61855 0.00000
C469 C 0.56301 0.65837 0.56967 0.00000
C470 C 0.60509 0.71508 0.62764 0.00000
C471 C 0.60908 0.64926 0.57969 0.00000
C472 C 0.62839 0.68116 0.60683 0.00000
O473 O 0.53576 0.63473 0.54075 0.00000
O474 O 0.49522 0.69474 0.56998 0.00000
C475 C 0.48770 0.64792 0.54932 0.00000
H476 H 0.45493 0.11759 0.91528 0.00000
H477 H 0.49463 0.18026 0.89238 0.00000
H478 H 0.29219 0.25794 0.87374 0.00000
C479 C 0.37091 0.19192 0.91112 0.00000
C480 C 0.39078 0.14864 0.91984 0.00000
C481 C 0.39560 0.22701 0.89261 0.00000
C482 C 0.43895 0.14573 0.91050 0.00000
C483 C 0.44232 0.22357 0.88216 0.00000
C484 C 0.46209 0.18279 0.89482 0.00000
O485 O 0.36759 0.26504 0.88715 0.00000
O486 O 0.32697 0.20650 0.91879 0.00000
C487 C 0.31967 0.24919 0.89137 0.00000
H488 H 0.24057 0.38996 0.90767 0.00000
H489 H 0.29969 0.35628 0.94352 0.00000
H490 H 0.41327 0.49797 0.83150 0.00000
C491 C 0.32383 0.45888 0.87935 0.00000
C492 C 0.27774 0.44377 0.88086 0.00000
C493 C 0.35899 0.43408 0.89763 0.00000
C494 C 0.27070 0.40259 0.90525 0.00000
C495 C 0.35221 0.39300 0.92021 0.00000
C496 C 0.30665 0.38132 0.92495 0.00000
O497 O 0.40038 0.45638 0.89081 0.00000
O498 O 0.34130 0.49792 0.86115 0.00000
C499 C 0.39284 0.49026 0.85638 0.00000
H500 H 0.04558 0.32743 0.83489 0.00000
H501 H 0.09278 0.38218 0.86256 0.00000
H502 H 0.10115 0.23780 0.01433 0.00000
C503 C 0.08560 0.27111 0.91739 0.00000
C504 C 0.05944 0.27632 0.87959 0.00000
C505 C 0.10936 0.30717 0.93533 0.00000
C506 C 0.06242 0.32101 0.86041 0.00000
C507 C 0.11094 0.35126 0.91729 0.00000
C508 C 0.08904 0.35438 0.87831 0.00000
O509 O 0.13125 0.29263 0.97231 0.00000
O510 O 0.09218 0.23249 0.94163 0.00000
C511 C 0.11004 0.24865 0.98496 0.00000
H512 H 0.13089 0.64467 0.82148 0.00000
H513 H 0.08086 0.68238 0.77793 0.00000
H514 H 0.17517 0.55334 0.64007 0.00000
C515 C 0.14348 0.58367 0.73440 0.00000
C516 C 0.15145 0.59480 0.77780 0.00000
C517 C 0.11690 0.61091 0.70826 0.00000
C518 C 0.12720 0.63468 0.79259 0.00000
C519 C 0.09448 0.65075 0.72242 0.00000
C520 C 0.09897 0.65844 0.76574 0.00000
O521 O 0.11550 0.59234 0.66744 0.00000
O522 O 0.15907 0.54666 0.71160 0.00000
C523 C 0.15330 0.55874 0.66441 0.00000
H524 H 0.95267 0.13359 0.73422 0.00000
H525 H 0.90528 0.09696 0.68742 0.00000
H526 H 0.76449 0.12876 0.83942 0.00000
C527 C 0.85475 0.14888 0.78339 0.00000
C528 C 0.90259 0.15423 0.77764 0.00000
C529 C 0.82869 0.12185 0.75661 0.00000
C530 C 0.92061 0.13184 0.74031 0.00000
C531 C 0.84668 0.09871 0.72096 0.00000
C532 C 0.89236 0.10806 0.71348 0.00000
O533 O 0.78333 0.12223 0.76999 0.00000
O534 O 0.82702 0.16796 0.81399 0.00000
C535 C 0.78278 0.13997 0.81425 0.00000
H536 H 0.14900 0.80202 0.23326 0.00000
H537 H 0.18721 0.84445 0.28300 0.00000
H538 H 0.04244 0.99353 0.22233 0.00000
C539 C 0.08140 0.89156 0.23703 0.00000
C540 C 0.09488 0.84738 0.22317 0.00000
C541 C 0.10867 0.91783 0.26343 0.00000
C542 C 0.13735 0.83145 0.24115 0.00000
C543 C 0.15093 0.90280 0.27980 0.00000
C544 C 0.16122 0.85800 0.26938 0.00000
O545 O 0.08749 0.95959 0.27133 0.00000
O546 O 0.04187 0.91508 0.22794 0.00000
C547 C 0.05108 0.96526 0.23889 0.00000
H548 H 0.29641 0.62720 0.24284 0.00000
H549 H 0.34237 0.66393 0.19488 0.00000
H550 H 0.49508 0.59422 0.32417 0.00000
C551 C 0.39666 0.59330 0.27779 0.00000
C552 C 0.34816 0.59470 0.27736 0.00000
C553 C 0.42275 0.62042 0.25111 0.00000
C554 C 0.32895 0.62414 0.24514 0.00000
C555 C 0.40388 0.65035 0.22063 0.00000
C556 C 0.35674 0.64779 0.21781 0.00000
O557 O 0.46896 0.61261 0.25876 0.00000
O558 O 0.42506 0.56686 0.30255 0.00000
C559 C 0.47247 0.58894 0.30040 0.00000
H560 H 0.84050 0.31913 0.29082 0.00000
H561 H 0.79961 0.35848 0.24073 0.00000
H562 H 0.98851 0.46569 0.22636 0.00000
C563 C 0.92333 0.38003 0.24877 0.00000
C564 C 0.90464 0.34664 0.27660 0.00000
C565 C 0.89606 0.40655 0.22259 0.00000
C566 C 0.85585 0.34086 0.27298 0.00000
C567 C 0.84818 0.40191 0.22018 0.00000
C568 C 0.83121 0.36615 0.24433 0.00000
O569 O 0.92318 0.43672 0.19940 0.00000
O570 O 0.96841 0.39165 0.24263 0.00000
C571 C 0.96848 0.43832 0.22052 0.00000
H572 H 0.56289 0.09098 0.28499 0.00000
H573 H 0.61297 0.04698 0.24696 0.00000
H574 H 0.69354 0.24360 0.20263 0.00000
C575 C 0.63760 0.16980 0.25847 0.00000
C576 C 0.59788 0.15295 0.27917 0.00000
C577 C 0.66369 0.14266 0.23181 0.00000
C578 C 0.58919 0.10500 0.27229 0.00000
C579 C 0.65423 0.09618 0.22398 0.00000
C580 C 0.61815 0.07930 0.24775 0.00000
O581 O 0.69994 0.16801 0.21545 0.00000
O582 O 0.65662 0.21274 0.26066 0.00000
C583 C 0.68909 0.21692 0.22258 0.00000
H584 H 0.34306 0.84563 0.68830 0.00000
H585 H 0.30331 0.89659 0.72926 0.00000
H586 H 0.47949 0.87303 0.84652 0.00000
C587 C 0.42241 0.87064 0.75857 0.00000
C588 C 0.40485 0.84888 0.72160 0.00000
C589 C 0.39513 0.89699 0.78490 0.00000
C590 C 0.35761 0.85914 0.71260 0.00000
C591 C 0.34855 0.90569 0.77682 0.00000
C592 C 0.33332 0.88799 0.73846 0.00000
O593 O 0.42091 0.91344 0.81887 0.00000
O594 O 0.46631 0.87012 0.77425 0.00000
C595 C 0.46337 0.88585 0.82073 0.00000
H596 H 0.69619 0.34882 0.72980 0.00000
H597 H 0.64737 0.30280 0.76716 0.00000
H598 H 0.52967 0.48600 0.76735 0.00000
C599 C 0.60615 0.41582 0.73261 0.00000
C600 C 0.65129 0.40351 0.72061 0.00000
C601 C 0.58010 0.38882 0.75943 0.00000
C602 C 0.66603 0.35959 0.73630 0.00000
C603 C 0.59518 0.34662 0.77591 0.00000
C604 C 0.63737 0.33313 0.76042 0.00000
O605 O 0.53781 0.40934 0.76629 0.00000
O606 O 0.58128 0.45370 0.72090 0.00000
C607 C 0.54194 0.45776 0.75287 0.00000
H608 H 0.18785 0.51034 0.47276 0.00000
H609 H 0.12445 0.52985 0.51129 0.00000
H610 H 0.23691 0.71520 0.53018 0.00000
C611 C 0.20820 0.61983 0.48603 0.00000
C612 C 0.21726 0.57538 0.46995 0.00000
C613 C 0.17207 0.62844 0.51330 0.00000
C614 C 0.18411 0.54132 0.48212 0.00000
C615 C 0.14061 0.59473 0.52632 0.00000
C616 C 0.14736 0.55278 0.50695 0.00000
O617 O 0.17173 0.67448 0.52447 0.00000
O618 O 0.23139 0.65988 0.47828 0.00000
C619 C 0.21720 0.69341 0.51334 0.00000
H620 H 0.84887 0.18113 0.53945 0.00000
H621 H 0.86206 0.23546 0.48854 0.00000
H622 H 0.05240 0.13014 0.47942 0.00000
C623 C 0.94489 0.14144 0.49978 0.00000
C624 C 0.90611 0.14052 0.52697 0.00000
C625 C 0.95378 0.17796 0.47306 0.00000
C626 C 0.87577 0.17902 0.52211 0.00000
C627 C 0.92487 0.21630 0.46943 0.00000
C628 C 0.88503 0.21261 0.49297 0.00000
O629 O 0.99411 0.17011 0.45070 0.00000
O630 O 0.97845 0.10894 0.49483 0.00000
C631 C 0.01872 0.13279 0.47295 0.00000
H632 H 0.79409 0.00908 0.00596 0.00000
H633 H 0.85870 0.02518 0.96782 0.00000
H634 H 0.79869 0.22829 0.01495 0.00000
C635 C 0.80294 0.11879 0.02657 0.00000
C636 C 0.78312 0.07468 0.03028 0.00000
C637 C 0.83887 0.12751 0.99990 0.00000
C638 C 0.80550 0.03980 0.00541 0.00000
C639 C 0.85969 0.09366 0.97372 0.00000
C640 C 0.84290 0.05013 0.98098 0.00000
O641 O 0.85093 0.17347 0.00147 0.00000
O642 O 0.79154 0.15831 0.04782 0.00000
C643 C 0.81261 0.19779 0.02249 0.00000
H644 H 0.15700 0.82688 0.47158 0.00000
H645 H 0.13725 0.76361 0.51018 0.00000
H646 H 0.95469 0.87953 0.53389 0.00000
C647 C 0.04831 0.84928 0.48743 0.00000
C648 C 0.09250 0.85757 0.47040 0.00000
C649 C 0.03970 0.81314 0.51469 0.00000
C650 C 0.12621 0.82369 0.48161 0.00000
C651 C 0.07311 0.78093 0.52677 0.00000
C652 C 0.11468 0.78699 0.50648 0.00000
O653 O 0.99396 0.81361 0.52690 0.00000
O654 O 0.00853 0.87330 0.48072 0.00000
C655 C 0.97564 0.85952 0.51645 0.00000
H656 H 0.18671 0.93465 0.07157 0.00000
H657 H 0.24162 0.95677 0.02401 0.00000
H658 H 0.11626 0.83903 0.89952 0.00000
C659 C 0.13849 0.89967 0.98285 0.00000
C660 C 0.14061 0.90744 0.02747 0.00000
C661 C 0.17505 0.90899 0.95629 0.00000
C662 C 0.18244 0.92845 0.04183 0.00000
C663 C 0.21651 0.92809 0.97063 0.00000
C664 C 0.21616 0.93961 0.01341 0.00000
O665 O 0.16383 0.89752 0.91453 0.00000
O666 O 0.10273 0.88294 0.95907 0.00000
C667 C 0.12296 0.86762 0.91637 0.00000
H668 H 0.34150 0.65259 0.49577 0.00000
H669 H 0.35736 0.71726 0.53391 0.00000
H670 H 0.56036 0.66087 0.48264 0.00000
C671 C 0.45058 0.66337 0.47312 0.00000
C672 C 0.40672 0.64284 0.47016 0.00000
C673 C 0.45930 0.69929 0.50060 0.00000
C674 C 0.37203 0.66451 0.49579 0.00000
C675 C 0.42567 0.71941 0.52672 0.00000
C676 C 0.38228 0.70194 0.52020 0.00000
O677 O 0.50499 0.71212 0.49742 0.00000
O678 O 0.48981 0.65274 0.45108 0.00000
C679 C 0.52948 0.67433 0.47575 0.00000
H680 H 0.85415 0.34421 0.50275 0.00000
H681 H 0.78930 0.35878 0.54107 0.00000
H682 H 0.82503 0.55833 0.46695 0.00000
C683 C 0.83260 0.44833 0.46913 0.00000
C684 C 0.85707 0.40643 0.47013 0.00000
C685 C 0.79675 0.45712 0.49667 0.00000
C686 C 0.83943 0.37333 0.49995 0.00000
C687 C 0.78056 0.42527 0.52681 0.00000
C688 C 0.80185 0.38312 0.52433 0.00000
O689 O 0.77960 0.50076 0.48912 0.00000
O690 O 0.83892 0.48535 0.44277 0.00000
C691 C 0.81435 0.52571 0.46379 0.00000
H692 H 0.69521 0.11441 0.43326 0.00000
H693 H 0.75364 0.09058 0.47624 0.00000
H694 H 0.58716 0.05956 0.60386 0.00000
C695 C 0.63536 0.07092 0.51199 0.00000
C696 C 0.64128 0.09190 0.47156 0.00000
C697 C 0.67187 0.06209 0.53875 0.00000
C698 C 0.68826 0.10013 0.45998 0.00000
C699 C 0.71766 0.07161 0.52795 0.00000
C700 C 0.72305 0.08777 0.48681 0.00000
O701 O 0.65619 0.04215 0.57628 0.00000
O702 O 0.59562 0.05625 0.53100 0.00000
C703 C 0.60625 0.05041 0.57847 0.00000
H704 H 0.64457 0.22141 0.97145 0.00000
H705 H 0.65801 0.15649 0.01003 0.00000
H706 H 0.44198 0.16859 0.03285 0.00000
C707 C 0.53869 0.18791 0.98682 0.00000
C708 C 0.57330 0.21674 0.96997 0.00000
C709 C 0.54867 0.15213 0.01408 0.00000
C710 C 0.61920 0.20359 0.98136 0.00000
C711 C 0.59349 0.14030 0.02633 0.00000
C712 C 0.62692 0.16589 0.00622 0.00000
O713 O 0.50845 0.13022 0.02609 0.00000
O714 O 0.49229 0.18949 0.97992 0.00000
C715 C 0.47012 0.16137 0.01552 0.00000
H716 H 0.38912 0.60853 0.97088 0.00000
H717 H 0.32600 0.60067 0.92857 0.00000
H718 H 0.24384 0.52397 0.10244 0.00000
C719 C 0.31319 0.58260 0.04409 0.00000
C720 C 0.35723 0.59525 0.02918 0.00000
C721 C 0.27757 0.57316 0.01647 0.00000
C722 C 0.36048 0.60028 0.98357 0.00000
C723 C 0.28128 0.57659 0.97181 0.00000
C724 C 0.32303 0.59335 0.95819 0.00000
O725 O 0.23882 0.56108 0.03961 0.00000
O726 O 0.29827 0.57778 0.08542 0.00000
C727 C 0.25402 0.54988 0.08345 0.00000
H728 H 0.99138 0.29617 0.99176 0.00000
H729 H 0.97291 0.34989 0.04179 0.00000
H730 H 0.77792 0.32717 0.95398 0.00000
C731 C 0.87971 0.29609 0.98092 0.00000
C732 C 0.92483 0.28084 0.97221 0.00000
C733 C 0.87109 0.33242 0.00795 0.00000
C734 C 0.95994 0.30426 0.99594 0.00000
C735 C 0.90561 0.35629 0.03000 0.00000
C736 C 0.94881 0.33797 0.02438 0.00000
O737 O 0.82423 0.34034 0.01011 0.00000
O738 O 0.83899 0.27918 0.96571 0.00000
C739 C 0.80300 0.31625 0.97356 0.00000
H740 H 0.24735 0.92502 0.52842 0.00000
H741 H 0.30943 0.91791 0.57218 0.00000
H742 H 0.40792 0.88770 0.39333 0.00000
C743 C 0.32878 0.92416 0.45637 0.00000
C744 C 0.28287 0.92759 0.47068 0.00000
C745 C 0.36440 0.91456 0.48393 0.00000
C746 C 0.27732 0.92333 0.51616 0.00000
C747 C 0.35867 0.90885 0.52821 0.00000
C748 C 0.31447 0.91685 0.54203 0.00000
O749 O 0.40529 0.91252 0.46133 0.00000
O750 O 0.34569 0.92941 0.41576 0.00000
C751 C 0.39342 0.90791 0.41560 0.00000
H752 H 0.51502 0.28128 0.50710 0.00000
H753 H 0.52867 0.34619 0.54561 0.00000
H754 H 0.72274 0.32560 0.45557 0.00000
C755 C 0.61407 0.31053 0.46607 0.00000
C756 C 0.57413 0.28325 0.46974 0.00000
C757 C 0.62292 0.34634 0.49363 0.00000
C758 C 0.54274 0.29800 0.50240 0.00000
C759 C 0.59291 0.35972 0.52647 0.00000
C760 C 0.55218 0.33566 0.52678 0.00000
O761 O 0.66449 0.36656 0.48313 0.00000
O762 O 0.64892 0.30727 0.43680 0.00000
C763 C 0.68932 0.33410 0.45519 0.00000
H764 H 0.38962 0.88852 0.02894 0.00000
H765 H 0.41348 0.83069 0.07261 0.00000
H766 H 0.43158 0.72912 0.89385 0.00000
C767 C 0.42675 0.81627 0.95669 0.00000
C768 C 0.40808 0.85832 0.97108 0.00000
C769 C 0.43561 0.78047 0.98426 0.00000
C770 C 0.40225 0.86131 0.01663 0.00000
C771 C 0.42841 0.78293 0.02861 0.00000
C772 C 0.41457 0.82566 0.04247 0.00000
O773 O 0.45301 0.74346 0.96158 0.00000
O774 O 0.43891 0.80377 0.91598 0.00000
C775 C 0.44273 0.75156 0.91594 0.00000
H776 H 0.60787 0.44492 0.01660 0.00000
H777 H 0.67025 0.46606 0.05581 0.00000
H778 H 0.76494 0.31970 0.93416 0.00000
C779 C 0.68817 0.39322 0.96157 0.00000
C780 C 0.64264 0.40719 0.97025 0.00000
C781 C 0.72378 0.40266 0.98919 0.00000
C782 C 0.63758 0.43430 0.00834 0.00000
C783 C 0.71848 0.42784 0.02715 0.00000
C784 C 0.67481 0.44500 0.03283 0.00000
O785 O 0.76424 0.38446 0.97314 0.00000
O786 O 0.70468 0.36969 0.92689 0.00000
C787 C 0.75155 0.35090 0.93978 0.00000
H788 H 0.01199 0.68465 0.03146 0.00000
H789 H 0.03209 0.62158 0.99274 0.00000
H790 H 0.20980 0.74282 0.96135 0.00000
C791 C 0.11918 0.71022 0.01145 0.00000
C792 C 0.07549 0.71734 0.03000 0.00000
C793 C 0.12778 0.67405 0.98423 0.00000
C794 C 0.04242 0.68230 0.02033 0.00000
C795 C 0.09492 0.64069 0.97367 0.00000
C796 C 0.05406 0.64569 0.99539 0.00000
O797 O 0.17294 0.67580 0.97036 0.00000
O798 O 0.15843 0.73553 0.01649 0.00000
C799 C 0.19022 0.72237 0.97972 0.00000
loop_
_geom_bond_atom_site_label_1
_geom_bond_atom_site_label_2
_geom_bond_distance
_geom_bond_site_symmetry_2
_ccdc_geom_bond_type
O0 Zn3 2.062 . S
O0 C15 1.265 . A
O1 Zn2 1.961 . S
O1 C15 1.292 . A
Zn2 O4 2.038 1_655 S
Zn2 O10 2.174 1_655 S
Zn2 O14 2.069 . S
Zn3 O4 2.099 1_655 S
Zn3 O13 2.024 . S
Zn3 O18 2.138 1_655 S
O4 Zn5 1.953 . S
O4 H17 0.992 . S
Zn5 O7 1.967 . S
Zn5 O9 1.951 . S
Zn5 O19 1.961 . S
C6 O9 1.283 . A
C6 O10 1.233 . A
O7 C16 1.248 . S
C8 O18 1.243 . A
C8 O19 1.269 . A
O11 C16 1.210 . D
C12 O13 1.217 . A
C12 O14 1.238 . A
O20 Zn23 2.062 . S
O20 C35 1.265 . A
O21 Zn22 1.961 . S
O21 C35 1.292 . A
Zn22 O24 2.038 1_565 S
Zn22 O30 2.174 1_565 S
Zn22 O34 2.069 . S
Zn23 O24 2.099 1_565 S
Zn23 O33 2.024 . S
Zn23 O38 2.138 1_565 S
O24 Zn25 1.953 . S
O24 H37 0.992 . S
Zn25 O27 1.967 . S
Zn25 O29 1.951 . S
Zn25 O39 1.961 . S
C26 O29 1.283 . A
C26 O30 1.233 . A
O27 C36 1.248 . S
C28 O38 1.243 . A
C28 O39 1.269 . A
O31 C36 1.210 . D
C32 O33 1.217 . A
C32 O34 1.238 . A
O40 Zn43 2.062 . S
O40 C55 1.265 . A
O41 Zn42 1.961 . S
O41 C55 1.292 . A
Zn42 O44 2.038 1_455 S
Zn42 O50 2.174 1_455 S
Zn42 O54 2.069 . S
Zn43 O44 2.099 1_455 S
Zn43 O53 2.024 . S
Zn43 O58 2.138 1_455 S
O44 Zn45 1.953 . S
O44 H57 0.992 . S
Zn45 O47 1.967 . S
Zn45 O49 1.951 . S
Zn45 O59 1.961 . S
C46 O49 1.283 . A
C46 O50 1.233 . A
O47 C56 1.248 . S
C48 O58 1.243 . A
C48 O59 1.269 . A
O51 C56 1.210 . D
C52 O53 1.217 . A
C52 O54 1.238 . A
O60 Zn63 2.062 . S
O60 C75 1.265 . A
O61 Zn62 1.961 . S
O61 C75 1.292 . A
Zn62 O64 2.038 1_545 S
Zn62 O70 2.174 1_545 S
Zn62 O74 2.069 . S
Zn63 O64 2.099 1_545 S
Zn63 O73 2.024 . S
Zn63 O78 2.138 1_545 S
O64 Zn65 1.953 . S
O64 H77 0.992 . S
Zn65 O67 1.967 . S
Zn65 O69 1.951 . S
Zn65 O79 1.961 . S
C66 O69 1.283 . A
C66 O70 1.233 . A
O67 C76 1.248 . S
C68 O78 1.243 . A
C68 O79 1.269 . A
O71 C76 1.210 . D
C72 O73 1.217 . A
C72 O74 1.238 . A
O80 Zn83 2.062 . S
O80 C95 1.265 . A
O81 Zn82 1.961 . S
O81 C95 1.292 . A
Zn82 O84 2.038 1_655 S
Zn82 O90 2.174 1_655 S
Zn82 O94 2.069 . S
Zn83 O84 2.099 1_655 S
Zn83 O93 2.024 . S
Zn83 O98 2.138 1_655 S
O84 Zn85 1.953 . S
O84 H97 0.992 . S
Zn85 O87 1.967 . S
Zn85 O89 1.951 . S
Zn85 O99 1.961 . S
C86 O89 1.283 . A
C86 O90 1.233 . A
O87 C96 1.248 . S
C88 O98 1.243 . A
C88 O99 1.269 . A
O91 C96 1.210 . D
C92 O93 1.217 . A
C92 O94 1.238 . A
O100 Zn103 2.062 . S
O100 C115 1.265 . A
O101 Zn102 1.961 . S
O101 C115 1.292 . A
Zn102 O104 2.038 . S
Zn102 O110 2.174 . S
Zn102 O114 2.069 . S
Zn103 O104 2.099 . S
Zn103 O113 2.024 . S
Zn103 O118 2.138 . S
O104 Zn105 1.953 . S
O104 H117 0.992 . S
Zn105 O107 1.967 . S
Zn105 O109 1.951 . S
Zn105 O119 1.961 . S
C106 O109 1.283 . A
C106 O110 1.233 . A
O107 C116 1.248 . S
C108 O118 1.243 . A
C108 O119 1.269 . A
O111 C116 1.210 . D
C112 O113 1.217 . A
C112 O114 1.238 . A
O120 Zn123 2.062 . S
O120 C135 1.265 . A
O121 Zn122 1.961 . S
O121 C135 1.292 . A
Zn122 O124 2.038 1_455 S
Zn122 O130 2.174 1_455 S
Zn122 O134 2.069 . S
Zn123 O124 2.099 1_455 S
Zn123 O133 2.024 . S
Zn123 O138 2.138 1_455 S
O124 Zn125 1.953 . S
O124 H137 0.992 . S
Zn125 O127 1.967 . S
Zn125 O129 1.951 . S
Zn125 O139 1.961 . S
C126 O129 1.283 . A
C126 O130 1.233 . A
O127 C136 1.248 . S
C128 O138 1.243 . A
C128 O139 1.269 . A
O131 C136 1.210 . D
C132 O133 1.217 . A
C132 O134 1.238 . A
O140 Zn143 2.062 . S
O140 C155 1.265 . A
O141 Zn142 1.961 . S
O141 C155 1.292 . A
Zn142 O144 2.038 . S
Zn142 O150 2.174 . S
Zn142 O154 2.069 . S
Zn143 O144 2.099 . S
Zn143 O153 2.024 . S
Zn143 O158 2.138 . S
O144 Zn145 1.953 . S
O144 H157 0.992 . S
Zn145 O147 1.967 . S
Zn145 O149 1.951 . S
Zn145 O159 1.961 . S
C146 O149 1.283 . A
C146 O150 1.233 . A
O147 C156 1.248 . S
C148 O158 1.243 . A
C148 O159 1.269 . A
O151 C156 1.210 . D
C152 O153 1.217 . A
C152 O154 1.238 . A
O160 Zn163 2.062 . S
O160 C175 1.265 . A
O161 Zn162 1.961 . S
O161 C175 1.292 . A
Zn162 O164 2.038 1_565 S
Zn162 O170 2.174 1_565 S
Zn162 O174 2.069 . S
Zn163 O164 2.099 1_565 S
Zn163 O173 2.024 . S
Zn163 O178 2.138 1_565 S
O164 Zn165 1.953 . S
O164 H177 0.992 . S
Zn165 O167 1.967 . S
Zn165 O169 1.951 . S
Zn165 O179 1.961 . S
C166 O169 1.283 . A
C166 O170 1.233 . A
O167 C176 1.248 . S
C168 O178 1.243 . A
C168 O179 1.269 . A
O171 C176 1.210 . D
C172 O173 1.217 . A
C172 O174 1.238 . A
O180 Zn183 2.062 . S
O180 C195 1.265 . A
O181 Zn182 1.961 . S
O181 C195 1.292 . A
Zn182 O184 2.038 . S
Zn182 O190 2.174 . S
Zn182 O194 2.069 . S
Zn183 O184 2.099 . S
Zn183 O193 2.024 . S
Zn183 O198 2.138 . S
O184 Zn185 1.953 . S
O184 H197 0.992 . S
Zn185 O187 1.967 . S
Zn185 O189 1.951 . S
Zn185 O199 1.961 . S
C186 O189 1.283 . A
C186 O190 1.233 . A
O187 C196 1.248 . S
C188 O198 1.243 . A
C188 O199 1.269 . A
O191 C196 1.210 . D
C192 O193 1.217 . A
C192 O194 1.238 . A
O200 Zn203 2.062 . S
O200 C215 1.265 . A
O201 Zn202 1.961 . S
O201 C215 1.292 . A
Zn202 O204 2.038 . S
Zn202 O210 2.174 . S
Zn202 O214 2.069 . S
Zn203 O204 2.099 . S
Zn203 O213 2.024 . S
Zn203 O218 2.138 . S
O204 Zn205 1.953 . S
O204 H217 0.992 . S
Zn205 O207 1.967 . S
Zn205 O209 1.951 . S
Zn205 O219 1.961 . S
C206 O209 1.283 . A
C206 O210 1.233 . A
O207 C216 1.248 . S
C208 O218 1.243 . A
C208 O219 1.269 . A
O211 C216 1.210 . D
C212 O213 1.217 . A
C212 O214 1.238 . A
O220 Zn223 2.062 . S
O220 C235 1.265 . A
O221 Zn222 1.961 . S
O221 C235 1.292 . A
Zn222 O224 2.038 . S
Zn222 O230 2.174 . S
Zn222 O234 2.069 . S
Zn223 O224 2.099 . S
Zn223 O233 2.024 . S
Zn223 O238 2.138 . S
O224 Zn225 1.953 . S
O224 H237 0.992 . S
Zn225 O227 1.967 . S
Zn225 O229 1.951 . S
Zn225 O239 1.961 . S
C226 O229 1.283 . A
C226 O230 1.233 . A
O227 C236 1.248 . S
C228 O238 1.243 . A
C228 O239 1.269 . A
O231 C236 1.210 . D
C232 O233 1.217 . A
C232 O234 1.238 . A
O240 Zn243 2.062 . S
O240 C255 1.265 . A
O241 Zn242 1.961 . S
O241 C255 1.292 . A
Zn242 O244 2.038 . S
Zn242 O250 2.174 . S
Zn242 O254 2.069 . S
Zn243 O244 2.099 . S
Zn243 O253 2.024 . S
Zn243 O258 2.138 . S
O244 Zn245 1.953 . S
O244 H257 0.992 . S
Zn245 O247 1.967 . S
Zn245 O249 1.951 . S
Zn245 O259 1.961 . S
C246 O249 1.283 . A
C246 O250 1.233 . A
O247 C256 1.248 . S
C248 O258 1.243 . A
C248 O259 1.269 . A
O251 C256 1.210 . D
C252 O253 1.217 . A
C252 O254 1.238 . A
O260 Zn263 2.062 . S
O260 C275 1.265 . A
O261 Zn262 1.961 . S
O261 C275 1.292 . A
Zn262 O264 2.038 1_545 S
Zn262 O270 2.174 1_545 S
Zn262 O274 2.069 . S
Zn263 O264 2.099 1_545 S
Zn263 O273 2.024 . S
Zn263 O278 2.138 1_545 S
O264 Zn265 1.953 . S
O264 H277 0.992 . S
Zn265 O267 1.967 . S
Zn265 O269 1.951 . S
Zn265 O279 1.961 . S
C266 O269 1.283 . A
C266 O270 1.233 . A
O267 C276 1.248 . S
C268 O278 1.243 . A
C268 O279 1.269 . A
O271 C276 1.210 . D
C272 O273 1.217 . A
C272 O274 1.238 . A
O280 Zn283 2.062 . S
O280 C295 1.265 . A
O281 Zn282 1.961 . S
O281 C295 1.292 . A
Zn282 O284 2.038 . S
Zn282 O290 2.174 . S
Zn282 O294 2.069 . S
Zn283 O284 2.099 . S
Zn283 O293 2.024 . S
Zn283 O298 2.138 . S
O284 Zn285 1.953 . S
O284 H297 0.992 . S
Zn285 O287 1.967 . S
Zn285 O289 1.951 . S
Zn285 O299 1.961 . S
C286 O289 1.283 . A
C286 O290 1.233 . A
O287 C296 1.248 . S
C288 O298 1.243 . A
C288 O299 1.269 . A
O291 C296 1.210 . D
C292 O293 1.217 . A
C292 O294 1.238 . A
O300 Zn303 2.062 . S
O300 C315 1.265 . A
O301 Zn302 1.961 . S
O301 C315 1.292 . A
Zn302 O304 2.038 . S
Zn302 O310 2.174 . S
Zn302 O314 2.069 . S
Zn303 O304 2.099 . S
Zn303 O313 2.024 . S
Zn303 O318 2.138 . S
O304 Zn305 1.953 . S
O304 H317 0.992 . S
Zn305 O307 1.967 . S
Zn305 O309 1.951 . S
Zn305 O319 1.961 . S
C306 O309 1.283 . A
C306 O310 1.233 . A
O307 C316 1.248 . S
C308 O318 1.243 . A
C308 O319 1.269 . A
O311 C316 1.210 . D
C312 O313 1.217 . A
C312 O314 1.238 . A
H320 C326 0.950 . S
H321 C328 0.949 . S
H322 C331 1.000 . S
C323 C324 1.407 . A
C323 C325 1.370 . A
C323 O330 1.363 . A
C324 C326 1.429 . A
C325 C327 1.396 . A
C325 O329 1.379 . A
C326 C328 1.357 . A
C327 C328 1.371 . A
O329 C331 1.469 . A
O330 C331 1.517 . A
H332 C338 0.950 . S
H333 C340 0.949 . S
H334 C343 1.000 . S
C335 C336 1.407 . A
C335 C337 1.370 . A
C335 O342 1.363 . A
C336 C338 1.429 . A
C337 C339 1.396 . A
C337 O341 1.379 . A
C338 C340 1.357 . A
C339 C340 1.371 . A
O341 C343 1.469 . A
O342 C343 1.517 . A
H344 C350 0.950 . S
H345 C352 0.949 . S
H346 C355 1.000 1_554 S
C347 C348 1.407 . A
C347 C349 1.370 . A
C347 O354 1.363 . A
C348 C350 1.429 . A
C349 C351 1.396 . A
C349 O353 1.379 . A
C350 C352 1.357 . A
C351 C352 1.371 . A
O353 C355 1.469 . A
O354 C355 1.517 . A
H356 C362 0.950 . S
H357 C364 0.949 . S
H358 C367 1.000 . S
C359 C360 1.407 . A
C359 C361 1.370 . A
C359 O366 1.363 . A
C360 C362 1.429 . A
C361 C363 1.396 . A
C361 O365 1.379 1_455 A
C362 C364 1.357 . A
C363 C364 1.371 . A
O365 C367 1.469 . A
O366 C367 1.517 1_455 A
H368 C374 0.950 . S
H369 C376 0.949 . S
H370 C379 1.000 . S
C371 C372 1.407 . A
C371 C373 1.370 . A
C371 O378 1.363 . A
C372 C374 1.429 . A
C373 C375 1.396 . A
C373 O377 1.379 . A
C374 C376 1.357 . A
C375 C376 1.371 . A
O377 C379 1.469 . A
O378 C379 1.517 . A
H380 C386 0.950 . S
H381 C388 0.949 . S
H382 C391 1.000 . S
C383 C384 1.407 . A
C383 C385 1.370 . A
C383 O390 1.363 . A
C384 C386 1.429 . A
C385 C387 1.396 . A
C385 O389 1.379 . A
C386 C388 1.357 . A
C387 C388 1.371 . A
O389 C391 1.469 . A
O390 C391 1.517 . A
H392 C398 0.950 . S
H393 C400 0.949 . S
H394 C403 1.000 . S
C395 C396 1.407 . A
C395 C397 1.370 . A
C395 O402 1.363 . A
C396 C398 1.429 . A
C397 C399 1.396 . A
C397 O401 1.379 . A
C398 C400 1.357 . A
C399 C400 1.371 . A
O401 C403 1.469 . A
O402 C403 1.517 . A
H404 C410 0.950 . S
H405 C412 0.949 . S
H406 C415 1.000 . S
C407 C408 1.407 . A
C407 C409 1.370 . A
C407 O414 1.363 . A
C408 C410 1.429 . A
C409 C411 1.396 . A
C409 O413 1.379 . A
C410 C412 1.357 . A
C411 C412 1.371 . A
O413 C415 1.469 . A
O414 C415 1.517 . A
H416 C422 0.950 . S
H417 C424 0.949 . S
H418 C427 1.000 . S
C419 C420 1.407 . A
C419 C421 1.370 . A
C419 O426 1.363 . A
C420 C422 1.429 . A
C421 C423 1.396 . A
C421 O425 1.379 . A
C422 C424 1.357 . A
C423 C424 1.371 . A
O425 C427 1.469 . A
O426 C427 1.517 . A
H428 C434 0.950 . S
H429 C436 0.949 . S
H430 C439 1.000 . S
C431 C432 1.407 . A
C431 C433 1.370 . A
C431 O438 1.363 . A
C432 C434 1.429 . A
C433 C435 1.396 . A
C433 O437 1.379 . A
C434 C436 1.357 . A
C435 C436 1.371 . A
O437 C439 1.469 . A
O438 C439 1.517 . A
H440 C446 0.950 . S
H441 C448 0.949 . S
H442 C451 1.000 . S
C443 C444 1.407 . A
C443 C445 1.370 . A
C443 O450 1.363 . A
C444 C446 1.429 . A
C445 C447 1.396 . A
C445 O449 1.379 1_655 A
C446 C448 1.357 . A
C447 C448 1.371 . A
O449 C451 1.469 . A
O450 C451 1.517 1_655 A
H452 C458 0.950 . S
H453 C460 0.949 . S
H454 C463 1.000 . S
C455 C456 1.407 . A
C455 C457 1.370 . A
C455 O462 1.363 . A
C456 C458 1.429 . A
C457 C459 1.396 . A
C457 O461 1.379 . A
C458 C460 1.357 . A
C459 C460 1.371 . A
O461 C463 1.469 . A
O462 C463 1.517 . A
H464 C470 0.950 . S
H465 C472 0.949 . S
H466 C475 1.000 . S
C467 C468 1.407 . A
C467 C469 1.370 . A
C467 O474 1.363 . A
C468 C470 1.429 . A
C469 C471 1.396 . A
C469 O473 1.379 . A
C470 C472 1.357 . A
C471 C472 1.371 . A
O473 C475 1.469 . A
O474 C475 1.517 . A
H476 C482 0.950 . S
H477 C484 0.949 . S
H478 C487 1.000 . S
C479 C480 1.407 . A
C479 C481 1.370 . A
C479 O486 1.363 . A
C480 C482 1.429 . A
C481 C483 1.396 . A
C481 O485 1.379 . A
C482 C484 1.357 . A
C483 C484 1.371 . A
O485 C487 1.469 . A
O486 C487 1.517 . A
H488 C494 0.950 . S
H489 C496 0.949 . S
H490 C499 1.000 . S
C491 C492 1.407 . A
C491 C493 1.370 . A
C491 O498 1.363 . A
C492 C494 1.429 . A
C493 C495 1.396 . A
C493 O497 1.379 . A
C494 C496 1.357 . A
C495 C496 1.371 . A
O497 C499 1.469 . A
O498 C499 1.517 . A
H500 C506 0.950 . S
H501 C508 0.949 . S
H502 C511 1.000 1_554 S
C503 C504 1.407 . A
C503 C505 1.370 . A
C503 O510 1.363 . A
C504 C506 1.429 . A
C505 C507 1.396 . A
C505 O509 1.379 . A
C506 C508 1.357 . A
C507 C508 1.371 . A
O509 C511 1.469 . A
O510 C511 1.517 . A
H512 C518 0.950 . S
H513 C520 0.949 . S
H514 C523 1.000 . S
C515 C516 1.407 . A
C515 C517 1.370 . A
C515 O522 1.363 . A
C516 C518 1.429 . A
C517 C519 1.396 . A
C517 O521 1.379 . A
C518 C520 1.357 . A
C519 C520 1.371 . A
O521 C523 1.469 . A
O522 C523 1.517 . A
H524 C530 0.950 . S
H525 C532 0.949 . S
H526 C535 1.000 . S
C527 C528 1.407 . A
C527 C529 1.370 . A
C527 O534 1.363 . A
C528 C530 1.429 . A
C529 C531 1.396 . A
C529 O533 1.379 . A
C530 C532 1.357 . A
C531 C532 1.371 . A
O533 C535 1.469 . A
O534 C535 1.517 . A
H536 C542 0.950 . S
H537 C544 0.949 . S
H538 C547 1.000 . S
C539 C540 1.407 . A
C539 C541 1.370 . A
C539 O546 1.363 . A
C540 C542 1.429 . A
C541 C543 1.396 . A
C541 O545 1.379 . A
C542 C544 1.357 . A
C543 C544 1.371 . A
O545 C547 1.469 . A
O546 C547 1.517 . A
H548 C554 0.950 . S
H549 C556 0.949 . S
H550 C559 1.000 . S
C551 C552 1.407 . A
C551 C553 1.370 . A
C551 O558 1.363 . A
C552 C554 1.429 . A
C553 C555 1.396 . A
C553 O557 1.379 . A
C554 C556 1.357 . A
C555 C556 1.371 . A
O557 C559 1.469 . A
O558 C559 1.517 . A
H560 C566 0.950 . S
H561 C568 0.949 . S
H562 C571 1.000 . S
C563 C564 1.407 . A
C563 C565 1.370 . A
C563 O570 1.363 . A
C564 C566 1.429 . A
C565 C567 1.396 . A
C565 O569 1.379 . A
C566 C568 1.357 . A
C567 C568 1.371 . A
O569 C571 1.469 . A
O570 C571 1.517 . A
H572 C578 0.950 . S
H573 C580 0.949 . S
H574 C583 1.000 . S
C575 C576 1.407 . A
C575 C577 1.370 . A
C575 O582 1.363 . A
C576 C578 1.429 . A
C577 C579 1.396 . A
C577 O581 1.379 . A
C578 C580 1.357 . A
C579 C580 1.371 . A
O581 C583 1.469 . A
O582 C583 1.517 . A
H584 C590 0.950 . S
H585 C592 0.949 . S
H586 C595 1.000 . S
C587 C588 1.407 . A
C587 C589 1.370 . A
C587 O594 1.363 . A
C588 C590 1.429 . A
C589 C591 1.396 . A
C589 O593 1.379 . A
C590 C592 1.357 . A
C591 C592 1.371 . A
O593 C595 1.469 . A
O594 C595 1.517 . A
H596 C602 0.950 . S
H597 C604 0.949 . S
H598 C607 1.000 . S
C599 C600 1.407 . A
C599 C601 1.370 . A
C599 O606 1.363 . A
C600 C602 1.429 . A
C601 C603 1.396 . A
C601 O605 1.379 . A
C602 C604 1.357 . A
C603 C604 1.371 . A
O605 C607 1.469 . A
O606 C607 1.517 . A
H608 C614 0.950 . S
H609 C616 0.949 . S
H610 C619 1.000 . S
C611 C612 1.407 . A
C611 C613 1.370 . A
C611 O618 1.363 . A
C612 C614 1.429 . A
C613 C615 1.396 . A
C613 O617 1.379 . A
C614 C616 1.357 . A
C615 C616 1.371 . A
O617 C619 1.469 . A
O618 C619 1.517 . A
H620 C626 0.950 . S
H621 C628 0.949 . S
H622 C631 1.000 . S
C623 C624 1.407 . A
C623 C625 1.370 . A
C623 O630 1.363 . A
C624 C626 1.429 . A
C625 C627 1.396 . A
C625 O629 1.379 . A
C626 C628 1.357 . A
C627 C628 1.371 . A
O629 C631 1.469 1_655 A
O630 C631 1.517 1_655 A
H632 C638 0.950 . S
H633 C640 0.949 . S
H634 C643 1.000 . S
C635 C636 1.407 . A
C635 C637 1.355 1_554 A
C635 O642 1.363 . A
C636 C638 1.429 . A
C637 C639 1.410 . A
C637 O641 1.378 1_556 A
C638 C640 1.357 1_554 A
C639 C640 1.371 . A
O641 C643 1.469 . A
O642 C643 1.517 . A
H644 C650 0.950 . S
H645 C652 0.949 . S
H646 C655 1.000 . S
C647 C648 1.407 . A
C647 C649 1.370 . A
C647 O654 1.363 . A
C648 C650 1.429 . A
C649 C651 1.396 . A
C649 O653 1.379 1_455 A
C650 C652 1.357 . A
C651 C652 1.371 . A
O653 C655 1.469 . A
O654 C655 1.517 1_455 A
H656 C662 0.950 . S
H657 C664 0.949 . S
H658 C667 1.000 . S
C659 C660 1.407 1_556 A
C659 C661 1.370 . A
C659 O666 1.363 . A
C660 C662 1.429 . A
C661 C663 1.396 . A
C661 O665 1.379 . A
C662 C664 1.357 . A
C663 C664 1.371 1_556 A
O665 C667 1.469 . A
O666 C667 1.517 . A
H668 C674 0.950 . S
H669 C676 0.949 . S
H670 C679 1.000 . S
C671 C672 1.407 . A
C671 C673 1.370 . A
C671 O678 1.363 . A
C672 C674 1.429 . A
C673 C675 1.396 . A
C673 O677 1.379 . A
C674 C676 1.357 . A
C675 C676 1.371 . A
O677 C679 1.469 . A
O678 C679 1.517 . A
H680 C686 0.950 . S
H681 C688 0.949 . S
H682 C691 1.000 . S
C683 C684 1.407 . A
C683 C685 1.370 . A
C683 O690 1.363 . A
C684 C686 1.429 . A
C685 C687 1.396 . A
C685 O689 1.379 . A
C686 C688 1.357 . A
C687 C688 1.371 . A
O689 C691 1.469 . A
O690 C691 1.517 . A
H692 C698 0.950 . S
H693 C700 0.949 . S
H694 C703 1.000 . S
C695 C696 1.407 . A
C695 C697 1.370 . A
C695 O702 1.363 . A
C696 C698 1.429 . A
C697 C699 1.396 . A
C697 O701 1.379 . A
C698 C700 1.357 . A
C699 C700 1.371 . A
O701 C703 1.469 . A
O702 C703 1.517 . A
H704 C710 0.950 . S
H705 C712 0.949 . S
H706 C715 1.000 . S
C707 C708 1.407 . A
C707 C709 1.370 1_556 A
C707 O714 1.363 . A
C708 C710 1.429 . A
C709 C711 1.396 . A
C709 O713 1.379 . A
C710 C712 1.357 1_556 A
C711 C712 1.371 . A
O713 C715 1.469 . A
O714 C715 1.517 1_556 A
H716 C722 0.950 . S
H717 C724 0.949 . S
H718 C727 1.000 . S
C719 C720 1.407 . A
C719 C721 1.370 . A
C719 O726 1.363 . A
C720 C722 1.429 1_554 A
C721 C723 1.396 1_554 A
C721 O725 1.379 . A
C722 C724 1.357 . A
C723 C724 1.371 . A
O725 C727 1.469 . A
O726 C727 1.517 . A
H728 C734 0.950 . S
H729 C736 0.949 . S
H730 C739 1.000 . S
C731 C732 1.407 . A
C731 C733 1.370 1_556 A
C731 O738 1.363 . A
C732 C734 1.429 . A
C733 C735 1.396 . A
C733 O737 1.379 . A
C734 C736 1.357 1_556 A
C735 C736 1.371 . A
O737 C739 1.469 1_554 A
O738 C739 1.517 . A
H740 C746 0.950 . S
H741 C748 0.949 . S
H742 C751 1.000 . S
C743 C744 1.407 . A
C743 C745 1.370 . A
C743 O750 1.363 . A
C744 C746 1.429 . A
C745 C747 1.396 . A
C745 O749 1.379 . A
C746 C748 1.357 . A
C747 C748 1.371 . A
O749 C751 1.469 . A
O750 C751 1.517 . A
H752 C758 0.950 . S
H753 C760 0.949 . S
H754 C763 1.000 . S
C755 C756 1.407 . A
C755 C757 1.370 . A
C755 O762 1.363 . A
C756 C758 1.429 . A
C757 C759 1.396 . A
C757 O761 1.379 . A
C758 C760 1.357 . A
C759 C760 1.371 . A
O761 C763 1.469 . A
O762 C763 1.517 . A
H764 C770 0.950 . S
H765 C772 0.949 . S
H766 C775 1.000 . S
C767 C768 1.407 . A
C767 C769 1.370 . A
C767 O774 1.363 . A
C768 C770 1.429 1_556 A
C769 C771 1.396 1_556 A
C769 O773 1.379 . A
C770 C772 1.357 . A
C771 C772 1.371 . A
O773 C775 1.469 . A
O774 C775 1.517 . A
H776 C782 0.950 . S
H777 C784 0.949 . S
H778 C787 1.000 . S
C779 C780 1.407 . A
C779 C781 1.370 . A
C779 O786 1.363 . A
C780 C782 1.429 1_556 A
C781 C783 1.396 1_556 A
C781 O785 1.379 . A
C782 C784 1.357 . A
C783 C784 1.371 . A
O785 C787 1.469 . A
O786 C787 1.517 . A
H788 C794 0.950 . S
H789 C796 0.949 . S
H790 C799 1.000 . S
C791 C792 1.407 . A
C791 C793 1.370 1_554 A
C791 O798 1.363 . A
C792 C794 1.429 . A
C793 C795 1.396 . A
C793 O797 1.379 . A
C794 C796 1.357 1_554 A
C795 C796 1.371 . A
O797 C799 1.469 . A
O798 C799 1.517 1_554 A
C324 C255 1.364 . S
C327 C12 1.596 . S
C336 C32 1.596 . S
C339 C15 1.376 . S
C348 C275 1.341 . S
C351 C52 1.620 . S
C360 C72 1.624 . S
C363 C135 1.313 . S
C372 C175 1.315 . S
C375 C92 1.627 . S
C384 C112 1.592 . S
C387 C155 1.382 . S
C396 C132 1.599 . S
C399 C115 1.383 . S
C408 C75 1.340 . S
C411 C152 1.600 . S
C420 C172 1.591 . S
C423 C195 1.365 . S
C432 C192 1.590 . S
C435 C215 1.366 . S
C444 C212 1.625 . S
C447 C95 1.314 . S
C456 C35 1.321 . S
C459 C232 1.638 . S
C468 C235 1.313 . S
C471 C252 1.644 . S
C480 C272 1.628 . S
C483 C295 1.313 . S
C492 C315 1.323 . S
C495 C292 1.632 . S
C504 C55 1.342 . S
C507 C312 1.620 . S
C516 C306 1.510 . S
C519 C6 1.520 . S
C528 C46 1.516 . S
C531 C26 1.512 . S
C540 C86 1.520 . S
C543 C66 1.502 . S
C552 C106 1.514 . S
C555 C186 1.505 . S
C564 C126 1.523 . S
C567 C206 1.503 . S
C576 C146 1.501 . S
C579 C166 1.538 . S
C588 C226 1.505 . S
C591 C266 1.527 . S
C600 C246 1.497 . S
C603 C286 1.538 . S
C612 C108 1.270 . S
C615 C16 1.170 . S
C624 C36 1.152 . S
C627 C128 1.295 . S
C636 C168 1.279 . S
C639 C56 1.162 . S
C648 C76 1.138 . S
C651 C8 1.233 . S
C660 C96 1.141 . S
C663 C268 1.292 . S
C672 C116 1.144 . S
C675 C228 1.225 . S
C684 C136 1.146 . S
C687 C248 1.224 . S
C696 C156 1.134 . S
C699 C28 1.267 . S
C708 C288 1.283 . S
C711 C176 1.161 . S
C720 C196 1.160 . S
C723 C308 1.239 . S
C732 C48 1.226 . S
C735 C216 1.163 . S
C744 C68 1.275 . S
C747 C236 1.139 . S
C756 C148 1.282 . S
C759 C256 1.156 . S
C768 C276 1.134 . S
C771 C188 1.280 . S
C780 C296 1.140 . S
C783 C208 1.248 . S
C792 C88 1.268 . S
C795 C316 1.172 . S
