# Generated by pormake.
# Topology zfu, (5)-cn, num edge types: 1
# Building blocks:
#     Node 0, Type 0, BuildingBlock: N364, # of connection points: 5
#     Node 1, Type 0, BuildingBlock: N364, # of connection points: 5
#     Node 2, Type 0, BuildingBlock: N364, # of connection points: 5
#     Node 3, Type 0, BuildingBlock: N364, # of connection points: 5
#     Node 4, Type 0, BuildingBlock: N364, # of connection points: 5
#     Node 5, Type 0, BuildingBlock: N364, # of connection points: 5
#     Node 6, Type 0, BuildingBlock: N364, # of connection points: 5
#     Node 7, Type 0, BuildingBlock: N364, # of connection points: 5
#     Edge 8, Type (0, 0), BuildingBlock: E229, # of connection points: 2
#     Edge 9, Type (0, 0), BuildingBlock: E229, # of connection points: 2
#     Edge 10, Type (0, 0), BuildingBlock: E229, # of connection points: 2
#     Edge 11, Type (0, 0), BuildingBlock: E229, # of connection points: 2
#     Edge 12, Type (0, 0), BuildingBlock: E229, # of connection points: 2
#     Edge 13, Type (0, 0), BuildingBlock: E229, # of connection points: 2
#     Edge 14, Type (0, 0), BuildingBlock: E229, # of connection points: 2
#     Edge 15, Type (0, 0), BuildingBlock: E229, # of connection points: 2
#     Edge 16, Type (0, 0), BuildingBlock: E229, # of connection points: 2
#     Edge 17, Type (0, 0), BuildingBlock: E229, # of connection points: 2
#     Edge 18, Type (0, 0), BuildingBlock: E229, # of connection points: 2
#     Edge 19, Type (0, 0), BuildingBlock: E229, # of connection points: 2
#     Edge 20, Type (0, 0), BuildingBlock: E229, # of connection points: 2
#     Edge 21, Type (0, 0), BuildingBlock: E229, # of connection points: 2
#     Edge 22, Type (0, 0), BuildingBlock: E229, # of connection points: 2
#     Edge 23, Type (0, 0), BuildingBlock: E229, # of connection points: 2
#     Edge 24, Type (0, 0), BuildingBlock: E229, # of connection points: 2
#     Edge 25, Type (0, 0), BuildingBlock: E229, # of connection points: 2
#     Edge 26, Type (0, 0), BuildingBlock: E229, # of connection points: 2
#     Edge 27, Type (0, 0), BuildingBlock: E229, # of connection points: 2
# Relax obj value: 0.200
# Max RMSD: 0.244
# Mean RMSD: 0.244
data_zfu+N364+E229
_symmetry_space_group_name_H-M    P1
_symmetry_Int_Tables_number       1
_symmetry_cell_setting            triclinic
loop_
_symmetry_equiv_pos_as_xyz
'x, y, z'
_cell_length_a     52.754
_cell_length_b     52.750
_cell_length_c     44.073
_cell_angle_alpha  90.001
_cell_angle_beta   89.996
_cell_angle_gamma  89.990
loop_
_atom_site_label
_atom_site_type_symbol
_atom_site_fract_x
_atom_site_fract_y
_atom_site_fract_z
_atom_type_partial_charge
C0 C 0.26648 0.08304 0.73611 0.00000
Cd1 Cd 0.21594 0.02507 0.78559 0.00000
C2 C 0.17327 0.01719 0.74941 0.00000
C3 C 0.22105 0.06147 0.72584 0.00000
C4 C 0.25643 0.06462 0.75540 0.00000
C5 C 0.18791 0.07361 0.81284 0.00000
C6 C 0.18281 0.09495 0.83099 0.00000
C7 C 0.19848 0.10209 0.85355 0.00000
C8 C 0.22036 0.08876 0.85461 0.00000
C9 C 0.22453 0.06881 0.83560 0.00000
H10 H 0.28213 0.09032 0.74047 0.00000
N11 N 0.23392 0.05396 0.75066 0.00000
N12 N 0.20840 0.06004 0.81637 0.00000
O13 O 0.26203 0.02516 0.81029 0.00000
O14 O 0.24758 0.99706 0.77793 0.00000
H15 H 0.20524 0.05422 0.72240 0.00000
H16 H 0.26584 0.05957 0.77217 0.00000
H17 H 0.17633 0.06903 0.79795 0.00000
H18 H 0.16825 0.10440 0.82724 0.00000
H19 H 0.23278 0.09329 0.86855 0.00000
H20 H 0.24025 0.06091 0.83661 0.00000
C21 C 0.26500 0.00642 0.79385 0.00000
O22 O 0.17055 0.03503 0.76705 0.00000
O23 O 0.19280 0.00426 0.74828 0.00000
C24 C 0.25321 0.09060 0.71050 0.00000
C25 C 0.22963 0.07925 0.70516 0.00000
C26 C 0.91730 0.73387 0.78405 0.00000
Cd27 Cd 0.97527 0.78442 0.73458 0.00000
C28 C 0.98315 0.82708 0.77076 0.00000
C29 C 0.93887 0.77930 0.79433 0.00000
C30 C 0.93572 0.74392 0.76476 0.00000
C31 C 0.92674 0.81244 0.70733 0.00000
C32 C 0.90540 0.81755 0.68919 0.00000
C33 C 0.89826 0.80187 0.66663 0.00000
C34 C 0.91159 0.78000 0.66556 0.00000
C35 C 0.93153 0.77582 0.68457 0.00000
H36 H 0.91003 0.71822 0.77969 0.00000
N37 N 0.94638 0.76643 0.76950 0.00000
N38 N 0.94030 0.79196 0.70380 0.00000
O39 O 0.97518 0.73832 0.70987 0.00000
O40 O 0.00328 0.75277 0.74223 0.00000
H41 H 0.94612 0.79512 0.79777 0.00000
H42 H 0.94077 0.73450 0.74799 0.00000
H43 H 0.93131 0.82403 0.72222 0.00000
H44 H 0.89595 0.83211 0.69293 0.00000
H45 H 0.90706 0.76757 0.65162 0.00000
H46 H 0.93943 0.76010 0.68355 0.00000
C47 C 0.99392 0.73535 0.72631 0.00000
O48 O 0.96531 0.82981 0.75312 0.00000
O49 O 0.99608 0.80755 0.77188 0.00000
C50 C 0.90974 0.74714 0.80967 0.00000
C51 C 0.92110 0.77072 0.81501 0.00000
C52 C 0.73350 0.91767 0.23612 0.00000
Cd53 Cd 0.78404 0.97564 0.28559 0.00000
C54 C 0.82670 0.98352 0.24940 0.00000
C55 C 0.77893 0.93924 0.22584 0.00000
C56 C 0.74354 0.93609 0.25541 0.00000
C57 C 0.81206 0.92710 0.31283 0.00000
C58 C 0.81717 0.90576 0.33098 0.00000
C59 C 0.80149 0.89862 0.35354 0.00000
C60 C 0.77962 0.91196 0.35461 0.00000
C61 C 0.77545 0.93190 0.33560 0.00000
H62 H 0.71785 0.91040 0.24048 0.00000
N63 N 0.76606 0.94675 0.25067 0.00000
N64 N 0.79158 0.94067 0.31637 0.00000
O65 O 0.73795 0.97555 0.31029 0.00000
O66 O 0.75240 0.00365 0.27793 0.00000
H67 H 0.79474 0.94649 0.22240 0.00000
H68 H 0.73413 0.94114 0.27218 0.00000
H69 H 0.82365 0.93168 0.29794 0.00000
H70 H 0.83172 0.89631 0.32724 0.00000
H71 H 0.76719 0.90742 0.36855 0.00000
H72 H 0.75972 0.93980 0.33661 0.00000
C73 C 0.73497 0.99430 0.29385 0.00000
O74 O 0.82943 0.96568 0.26705 0.00000
O75 O 0.80718 0.99645 0.24828 0.00000
C76 C 0.74677 0.91011 0.21050 0.00000
C77 C 0.77035 0.92146 0.20516 0.00000
C78 C 0.58266 0.23386 0.48610 0.00000
Cd79 Cd 0.52469 0.28441 0.53558 0.00000
C80 C 0.51680 0.32708 0.49940 0.00000
C81 C 0.56109 0.27929 0.47583 0.00000
C82 C 0.56424 0.24391 0.50540 0.00000
C83 C 0.57322 0.31243 0.56283 0.00000
C84 C 0.59456 0.31753 0.58097 0.00000
C85 C 0.60170 0.30185 0.60353 0.00000
C86 C 0.58837 0.27998 0.60460 0.00000
C87 C 0.56843 0.27581 0.58559 0.00000
H88 H 0.58994 0.21821 0.49046 0.00000
N89 N 0.55358 0.26642 0.50066 0.00000
N90 N 0.55966 0.29195 0.56636 0.00000
O91 O 0.52479 0.23832 0.56028 0.00000
O92 O 0.49668 0.25277 0.52793 0.00000
H93 H 0.55384 0.29511 0.47239 0.00000
H94 H 0.55920 0.23450 0.52217 0.00000
H95 H 0.56864 0.32402 0.54794 0.00000
H96 H 0.60400 0.33209 0.57723 0.00000
H97 H 0.59291 0.26755 0.61854 0.00000
H98 H 0.56053 0.26009 0.58661 0.00000
C99 C 0.50604 0.23535 0.54384 0.00000
O100 O 0.53464 0.32980 0.51704 0.00000
O101 O 0.50388 0.30755 0.49828 0.00000
C102 C 0.59023 0.24713 0.46049 0.00000
C103 C 0.57887 0.27071 0.45515 0.00000
C104 C 0.41731 0.76685 0.98612 0.00000
Cd105 Cd 0.47528 0.71630 0.03560 0.00000
C106 C 0.48317 0.67363 0.99990 0.00000
C107 C 0.43888 0.72142 0.97585 0.00000
C108 C 0.43573 0.75680 0.00541 0.00000
C109 C 0.42675 0.68828 0.06284 0.00000
C110 C 0.40541 0.68318 0.08099 0.00000
C111 C 0.39827 0.69886 0.10356 0.00000
C112 C 0.41160 0.72073 0.10462 0.00000
C113 C 0.43154 0.72490 0.08561 0.00000
H114 H 0.41003 0.78250 0.99049 0.00000
N115 N 0.44638 0.73429 0.00010 0.00000
N116 N 0.44031 0.70876 0.06638 0.00000
O117 O 0.47518 0.76239 0.06030 0.00000
O118 O 0.50328 0.74793 0.02794 0.00000
H119 H 0.44614 0.70560 0.97241 0.00000
H120 H 0.44077 0.76621 0.02218 0.00000
H121 H 0.43133 0.67669 0.04795 0.00000
H122 H 0.39596 0.66862 0.07725 0.00000
H123 H 0.40706 0.73316 0.11856 0.00000
H124 H 0.43943 0.74062 0.08662 0.00000
C125 C 0.49392 0.76536 0.04386 0.00000
O126 O 0.46533 0.67091 0.01706 0.00000
O127 O 0.49609 0.69315 0.99829 0.00000
C128 C 0.40975 0.75358 0.96051 0.00000
C129 C 0.42111 0.73000 0.95517 0.00000
C130 C 0.76648 0.41765 0.03403 0.00000
Cd131 Cd 0.71593 0.47563 0.98456 0.00000
C132 C 0.67327 0.48352 0.02074 0.00000
C133 C 0.72105 0.43923 0.04431 0.00000
C134 C 0.75644 0.43608 0.01474 0.00000
C135 C 0.68792 0.42710 0.95731 0.00000
C136 C 0.68282 0.40575 0.93916 0.00000
C137 C 0.69850 0.39861 0.91660 0.00000
C138 C 0.72037 0.41194 0.91554 0.00000
C139 C 0.72453 0.43189 0.93455 0.00000
H140 H 0.78213 0.41037 0.02967 0.00000
N141 N 0.73392 0.44673 0.01948 0.00000
N142 N 0.70840 0.44066 0.95378 0.00000
O143 O 0.76203 0.47553 0.95985 0.00000
O144 O 0.74757 0.50364 0.99222 0.00000
H145 H 0.70524 0.44648 0.04775 0.00000
H146 H 0.76585 0.44112 0.99797 0.00000
H147 H 0.67633 0.43168 0.97220 0.00000
H148 H 0.66826 0.39631 0.94291 0.00000
H149 H 0.73280 0.40740 0.90160 0.00000
H150 H 0.74026 0.43978 0.93353 0.00000
C151 C 0.76500 0.49428 0.97630 0.00000
O152 O 0.67055 0.46568 0.00310 0.00000
O153 O 0.69279 0.49644 0.02186 0.00000
C154 C 0.75321 0.41009 0.05965 0.00000
C155 C 0.72963 0.42145 0.06499 0.00000
C156 C 0.08266 0.26684 0.28406 0.00000
Cd157 Cd 0.02469 0.21629 0.23458 0.00000
C158 C 0.01681 0.17363 0.27077 0.00000
C159 C 0.06109 0.22141 0.29433 0.00000
C160 C 0.06424 0.25679 0.26477 0.00000
C161 C 0.07323 0.18827 0.20734 0.00000
C162 C 0.09457 0.18316 0.18919 0.00000
C163 C 0.10171 0.19884 0.16663 0.00000
C164 C 0.08838 0.22071 0.16556 0.00000
C165 C 0.06843 0.22489 0.18457 0.00000
H166 H 0.08993 0.28249 0.27970 0.00000
N167 N 0.05359 0.23428 0.26951 0.00000
N168 N 0.05967 0.20875 0.20380 0.00000
O169 O 0.02479 0.26239 0.20988 0.00000
O170 O 0.99668 0.24794 0.24224 0.00000
H171 H 0.05384 0.20559 0.29777 0.00000
H172 H 0.05919 0.26620 0.24800 0.00000
H173 H 0.06865 0.17668 0.22223 0.00000
H174 H 0.10402 0.16860 0.19293 0.00000
H175 H 0.09291 0.23314 0.15163 0.00000
H176 H 0.06054 0.24061 0.18356 0.00000
C177 C 0.00604 0.26536 0.22632 0.00000
O178 O 0.03465 0.17090 0.25313 0.00000
O179 O 0.00389 0.19316 0.27189 0.00000
C180 C 0.09022 0.25357 0.30967 0.00000
C181 C 0.07886 0.22999 0.31501 0.00000
C182 C 0.23348 0.58305 0.53405 0.00000
Cd183 Cd 0.28404 0.52507 0.48457 0.00000
C184 C 0.32670 0.51718 0.52075 0.00000
C185 C 0.27892 0.56148 0.54432 0.00000
C186 C 0.24353 0.56463 0.51476 0.00000
C187 C 0.31205 0.57360 0.45732 0.00000
C188 C 0.31715 0.59495 0.43917 0.00000
C189 C 0.30148 0.60209 0.41661 0.00000
C190 C 0.27961 0.58876 0.41555 0.00000
C191 C 0.27544 0.56881 0.43456 0.00000
H192 H 0.21784 0.59033 0.52969 0.00000
N193 N 0.26605 0.55397 0.51949 0.00000
N194 N 0.29157 0.56005 0.45379 0.00000
O195 O 0.23794 0.52517 0.45987 0.00000
O196 O 0.25240 0.49707 0.49223 0.00000
H197 H 0.29473 0.55422 0.54776 0.00000
H198 H 0.23412 0.55959 0.49799 0.00000
H199 H 0.32364 0.56902 0.47221 0.00000
H200 H 0.33171 0.60439 0.44292 0.00000
H201 H 0.26718 0.59330 0.40162 0.00000
H202 H 0.25972 0.56092 0.43355 0.00000
C203 C 0.23497 0.50643 0.47631 0.00000
O204 O 0.32942 0.53502 0.50311 0.00000
O205 O 0.30718 0.50426 0.52187 0.00000
C206 C 0.24675 0.59061 0.55966 0.00000
C207 C 0.27033 0.57925 0.56500 0.00000
C208 C 0.00263 0.84503 0.73865 0.00000
C209 C 0.00513 0.82341 0.72064 0.00000
C210 C 0.99309 0.80121 0.72971 0.00000
C211 C 0.97875 0.80067 0.75615 0.00000
C212 C 0.97642 0.82224 0.77365 0.00000
C213 C 0.98872 0.84440 0.76466 0.00000
C214 C 0.01486 0.86978 0.72917 0.00000
H215 H 0.01473 0.82382 0.70270 0.00000
H216 H 0.99464 0.78648 0.71789 0.00000
H217 H 0.97067 0.78558 0.76212 0.00000
H218 H 0.98739 0.85905 0.77669 0.00000
H219 H 0.02016 0.86876 0.70790 0.00000
H220 H 0.00254 0.88365 0.73105 0.00000
C221 C 0.14563 0.99990 0.77534 0.00000
C222 C 0.16256 0.00368 0.75160 0.00000
C223 C 0.13671 0.97313 0.78183 0.00000
C224 C 0.10537 0.93979 0.76810 0.00000
C225 C 0.08167 0.93297 0.75163 0.00000
C226 C 0.13769 0.02011 0.79284 0.00000
C227 C 0.14690 0.04426 0.78653 0.00000
C228 C 0.17141 0.02792 0.74504 0.00000
H229 H 0.12622 0.01761 0.80884 0.00000
H230 H 0.14204 0.05798 0.79880 0.00000
H231 H 0.16880 0.06478 0.75774 0.00000
H232 H 0.16805 0.98985 0.73990 0.00000
H233 H 0.13229 0.97168 0.80336 0.00000
C234 C 0.04913 0.90018 0.74073 0.00000
C235 C 0.07227 0.90636 0.75952 0.00000
H236 H 0.11881 0.92807 0.76183 0.00000
H237 H 0.06842 0.94534 0.75670 0.00000
H238 H 0.08471 0.93400 0.72971 0.00000
H239 H 0.10260 0.93732 0.78987 0.00000
H240 H 0.15058 0.96121 0.77770 0.00000
H241 H 0.03643 0.91355 0.74354 0.00000
H242 H 0.05385 0.89989 0.71926 0.00000
N243 N 0.03757 0.87511 0.74900 0.00000
N244 N 0.11424 0.96613 0.76295 0.00000
C245 C 0.16324 0.04831 0.76233 0.00000
C246 C 0.98927 0.16289 0.24360 0.00000
C247 C 0.98279 0.18711 0.23345 0.00000
C248 C 0.99582 0.20786 0.24509 0.00000
C249 C 0.01500 0.20447 0.26631 0.00000
C250 C 0.02121 0.18039 0.27603 0.00000
C251 C 0.00795 0.15964 0.26455 0.00000
C252 C 0.97602 0.13972 0.23090 0.00000
H253 H 0.96990 0.18938 0.21900 0.00000
H254 H 0.99164 0.22429 0.23856 0.00000
H255 H 0.02371 0.21862 0.27407 0.00000
H256 H 0.01194 0.14323 0.27136 0.00000
H257 H 0.96662 0.14434 0.21254 0.00000
H258 H 0.98866 0.12685 0.22536 0.00000
C259 C 0.86102 0.99466 0.27284 0.00000
C260 C 0.83993 0.99410 0.25392 0.00000
C261 C 0.87041 0.02001 0.28418 0.00000
C262 C 0.89739 0.05740 0.27222 0.00000
C263 C 0.91698 0.06897 0.25218 0.00000
C264 C 0.87265 0.97224 0.28140 0.00000
C265 C 0.86296 0.94928 0.27105 0.00000
C266 C 0.83054 0.97113 0.24320 0.00000
H267 H 0.88692 0.97252 0.29411 0.00000
H268 H 0.87042 0.93401 0.27738 0.00000
H269 H 0.83639 0.93313 0.24395 0.00000
H270 H 0.83197 0.00932 0.24832 0.00000
H271 H 0.87897 0.01768 0.30371 0.00000
C272 C 0.94570 0.10538 0.24242 0.00000
C273 C 0.92711 0.09403 0.26469 0.00000
H274 H 0.88285 0.06893 0.27330 0.00000
H275 H 0.93112 0.05702 0.24984 0.00000
H276 H 0.90967 0.07189 0.23202 0.00000
H277 H 0.90437 0.05587 0.29274 0.00000
H278 H 0.85587 0.03130 0.28744 0.00000
H279 H 0.95887 0.09284 0.23781 0.00000
H280 H 0.93683 0.10937 0.22352 0.00000
N281 N 0.95804 0.12903 0.25426 0.00000
N282 N 0.88831 0.03212 0.26224 0.00000
C283 C 0.84235 0.94869 0.25148 0.00000
C284 C 0.50223 0.36372 0.45288 0.00000
C285 C 0.52159 0.37064 0.43294 0.00000
C286 C 0.54439 0.35742 0.43397 0.00000
C287 C 0.54772 0.33763 0.45439 0.00000
C288 C 0.52835 0.33099 0.47387 0.00000
C289 C 0.50561 0.34444 0.47300 0.00000
C290 C 0.47686 0.37717 0.45195 0.00000
H291 H 0.51929 0.38394 0.41905 0.00000
H292 H 0.55764 0.36189 0.42077 0.00000
H293 H 0.56320 0.32879 0.45493 0.00000
H294 H 0.49247 0.34015 0.48647 0.00000
H295 H 0.47551 0.38712 0.43324 0.00000
H296 H 0.46312 0.36461 0.45203 0.00000
C297 C 0.35598 0.48999 0.56010 0.00000
C298 C 0.34971 0.51160 0.54366 0.00000
C299 C 0.38297 0.48045 0.55895 0.00000
C300 C 0.41379 0.45406 0.53012 0.00000
C301 C 0.41818 0.43512 0.50559 0.00000
C302 C 0.33775 0.47799 0.57756 0.00000
C303 C 0.31329 0.48782 0.57857 0.00000
C304 C 0.32511 0.52114 0.54432 0.00000
H305 H 0.34187 0.46336 0.58864 0.00000
H306 H 0.30103 0.48008 0.59094 0.00000
H307 H 0.29005 0.51503 0.56170 0.00000
H308 H 0.36215 0.51981 0.53201 0.00000
H309 H 0.38682 0.47133 0.57777 0.00000
C310 C 0.44876 0.40693 0.47916 0.00000
C311 C 0.44526 0.42480 0.50562 0.00000
H312 H 0.42492 0.46864 0.52658 0.00000
H313 H 0.40627 0.42098 0.50816 0.00000
H314 H 0.41467 0.44302 0.48588 0.00000
H315 H 0.41870 0.44650 0.54955 0.00000
H316 H 0.39455 0.49496 0.55755 0.00000
H317 H 0.43561 0.39382 0.47993 0.00000
H318 H 0.44664 0.41635 0.46021 0.00000
N319 N 0.47432 0.39441 0.47911 0.00000
N320 N 0.38728 0.46325 0.53249 0.00000
C321 C 0.30679 0.50896 0.56152 0.00000
C322 C 0.51267 0.66453 0.02460 0.00000
C323 C 0.51993 0.68912 0.03242 0.00000
C324 C 0.50655 0.70943 0.02024 0.00000
C325 C 0.48626 0.70525 0.00010 0.00000
C326 C 0.47929 0.68081 0.99334 0.00000
C327 C 0.49290 0.66049 0.00535 0.00000
C328 C 0.52630 0.64186 0.03800 0.00000
H329 H 0.53357 0.69193 0.04569 0.00000
H330 H 0.51124 0.72610 0.02521 0.00000
H331 H 0.47731 0.71909 0.99263 0.00000
H332 H 0.48838 0.64382 0.00010 0.00000
H333 H 0.53669 0.64727 0.05525 0.00000
H334 H 0.51383 0.62949 0.04541 0.00000
C335 C 0.63728 0.49318 0.99856 0.00000
C336 C 0.65931 0.49328 0.01589 0.00000
C337 C 0.62760 0.51804 0.98606 0.00000
C338 C 0.60170 0.55638 0.99717 0.00000
C339 C 0.58333 0.56926 0.01772 0.00000
C340 C 0.62499 0.47054 0.99255 0.00000
C341 C 0.63495 0.44802 0.00387 0.00000
C342 C 0.66899 0.47076 0.02759 0.00000
H343 H 0.61008 0.47038 0.98093 0.00000
H344 H 0.62700 0.43256 0.99990 0.00000
H345 H 0.66269 0.43289 0.03011 0.00000
H346 H 0.66771 0.50863 0.01975 0.00000
H347 H 0.61801 0.51484 0.96741 0.00000
C348 C 0.55557 0.60652 0.02684 0.00000
C349 C 0.57284 0.59377 0.00414 0.00000
H350 H 0.61629 0.56761 0.99416 0.00000
H351 H 0.56921 0.55766 0.02199 0.00000
H352 H 0.59171 0.57309 0.03704 0.00000
H353 H 0.59366 0.55391 0.97737 0.00000
H354 H 0.64206 0.52891 0.98090 0.00000
H355 H 0.54254 0.59445 0.03335 0.00000
H356 H 0.56546 0.61134 0.04472 0.00000
N357 N 0.54290 0.62971 0.01419 0.00000
N358 N 0.61101 0.53153 0.00833 0.00000
C359 C 0.65652 0.44811 0.02189 0.00000
C360 C 0.15161 0.20375 0.12738 0.00000
C361 C 0.15966 0.22800 0.13560 0.00000
C362 C 0.14663 0.24078 0.15838 0.00000
C363 C 0.12608 0.22951 0.17274 0.00000
C364 C 0.11842 0.20548 0.16439 0.00000
C365 C 0.13136 0.19282 0.14133 0.00000
C366 C 0.16569 0.18890 0.10324 0.00000
H367 H 0.17363 0.23557 0.12598 0.00000
H368 H 0.15176 0.25714 0.16412 0.00000
H369 H 0.11737 0.23828 0.18812 0.00000
H370 H 0.12603 0.17656 0.13536 0.00000
H371 H 0.18213 0.19688 0.09924 0.00000
H372 H 0.16880 0.17156 0.11045 0.00000
C373 C 0.15962 0.11341 0.89674 0.00000
C374 C 0.17884 0.12210 0.87782 0.00000
C375 C 0.14720 0.13193 0.91827 0.00000
C376 C 0.15017 0.15257 0.96893 0.00000
C377 C 0.16256 0.15345 0.99990 0.00000
C378 C 0.15187 0.08836 0.89515 0.00000
C379 C 0.16340 0.07214 0.87443 0.00000
C380 C 0.19062 0.10571 0.85747 0.00000
H381 H 0.13895 0.08239 0.90793 0.00000
H382 H 0.15779 0.05529 0.87278 0.00000
H383 H 0.19120 0.06927 0.84281 0.00000
H384 H 0.18394 0.13913 0.87879 0.00000
H385 H 0.12981 0.12640 0.92242 0.00000
C386 C 0.16348 0.17247 0.05083 0.00000
C387 C 0.14907 0.17140 0.02123 0.00000
H388 H 0.15113 0.16949 0.95980 0.00000
H389 H 0.16273 0.13631 0.00799 0.00000
H390 H 0.18021 0.15891 0.99688 0.00000
H391 H 0.13220 0.14851 0.97168 0.00000
H392 H 0.14638 0.14868 0.90863 0.00000
H393 H 0.16571 0.15521 0.05861 0.00000
H394 H 0.18031 0.17963 0.04715 0.00000
N395 N 0.15023 0.18815 0.07444 0.00000
N396 N 0.16141 0.13401 0.94751 0.00000
C397 C 0.18307 0.08056 0.85612 0.00000
C398 C 0.86653 0.84353 0.63893 0.00000
C399 C 0.85150 0.85157 0.66315 0.00000
C400 C 0.85298 0.83854 0.69052 0.00000
C401 C 0.86925 0.81799 0.69367 0.00000
C402 C 0.88404 0.81034 0.66952 0.00000
C403 C 0.88232 0.82328 0.64201 0.00000
C404 C 0.86600 0.85761 0.60897 0.00000
H405 H 0.84059 0.86553 0.66104 0.00000
H406 H 0.84293 0.84366 0.70701 0.00000
H407 H 0.87014 0.80928 0.71227 0.00000
H408 H 0.89217 0.81795 0.62541 0.00000
H409 H 0.85763 0.87404 0.61162 0.00000
H410 H 0.88341 0.86073 0.60202 0.00000
C411 C 0.82065 0.85152 0.39020 0.00000
C412 C 0.80411 0.87073 0.38155 0.00000
C413 C 0.81695 0.83910 0.42078 0.00000
C414 C 0.82639 0.84207 0.47599 0.00000
C415 C 0.84115 0.85446 0.50070 0.00000
C416 C 0.83970 0.84378 0.37066 0.00000
C417 C 0.84199 0.85531 0.34240 0.00000
C418 C 0.80673 0.88251 0.35346 0.00000
H419 H 0.85095 0.83086 0.37642 0.00000
H420 H 0.85450 0.84971 0.32879 0.00000
H421 H 0.82813 0.88311 0.31525 0.00000
H422 H 0.79110 0.87582 0.39475 0.00000
H423 H 0.82345 0.82171 0.42002 0.00000
C424 C 0.85232 0.85539 0.55544 0.00000
C425 C 0.83811 0.84097 0.53119 0.00000
H426 H 0.80833 0.84302 0.48111 0.00000
H427 H 0.85916 0.85465 0.49508 0.00000
H428 H 0.83558 0.87212 0.50278 0.00000
H429 H 0.83102 0.82410 0.47521 0.00000
H430 H 0.79876 0.83827 0.42536 0.00000
H431 H 0.86997 0.85763 0.54900 0.00000
H432 H 0.84476 0.87222 0.55774 0.00000
N433 N 0.85193 0.84214 0.58558 0.00000
N434 N 0.83018 0.85331 0.44548 0.00000
C435 C 0.82598 0.87498 0.33403 0.00000
C436 C 0.64933 0.32947 0.63046 0.00000
C437 C 0.66874 0.32368 0.61008 0.00000
C438 C 0.66329 0.30833 0.58527 0.00000
C439 C 0.63891 0.29908 0.58084 0.00000
C440 C 0.61992 0.30505 0.60115 0.00000
C441 C 0.62551 0.32023 0.62618 0.00000
C442 C 0.65431 0.34668 0.65734 0.00000
H443 H 0.68519 0.33004 0.61302 0.00000
H444 H 0.67615 0.30420 0.57140 0.00000
H445 H 0.63538 0.28871 0.56399 0.00000
H446 H 0.61269 0.32412 0.64024 0.00000
H447 H 0.67052 0.35545 0.65460 0.00000
H448 H 0.64089 0.35954 0.65869 0.00000
C449 C 0.66517 0.36109 0.88183 0.00000
C450 C 0.68845 0.37018 0.89184 0.00000
C451 C 0.66467 0.34297 0.85528 0.00000
C452 C 0.66437 0.33948 0.79896 0.00000
C453 C 0.66160 0.35247 0.76912 0.00000
C454 C 0.64310 0.36828 0.89652 0.00000
C455 C 0.64452 0.38450 0.92136 0.00000
C456 C 0.68976 0.38674 0.91638 0.00000
H457 H 0.62733 0.36225 0.88980 0.00000
H458 H 0.62966 0.38894 0.93183 0.00000
H459 H 0.66833 0.40566 0.94715 0.00000
H460 H 0.70340 0.36514 0.88197 0.00000
H461 H 0.64967 0.33208 0.85685 0.00000
C462 C 0.65869 0.34828 0.71310 0.00000
C463 C 0.65995 0.33382 0.74265 0.00000
H464 H 0.68036 0.33001 0.79893 0.00000
H465 H 0.64621 0.36296 0.76948 0.00000
H466 H 0.67610 0.36380 0.76597 0.00000
H467 H 0.65060 0.32716 0.80117 0.00000
H468 H 0.67973 0.33206 0.85607 0.00000
H469 H 0.64466 0.36044 0.71403 0.00000
H470 H 0.67442 0.35786 0.71041 0.00000
N471 N 0.65496 0.33126 0.68617 0.00000
N472 N 0.66415 0.35668 0.82560 0.00000
C473 C 0.66765 0.39417 0.93089 0.00000
C474 C 0.32454 0.59089 0.36387 0.00000
C475 C 0.33939 0.57194 0.37702 0.00000
C476 C 0.33796 0.56823 0.40821 0.00000
C477 C 0.32194 0.58304 0.42586 0.00000
C478 C 0.30733 0.60164 0.41248 0.00000
C479 C 0.30899 0.60550 0.38124 0.00000
C480 C 0.32501 0.59511 0.32986 0.00000
H481 H 0.35013 0.56186 0.36506 0.00000
H482 H 0.34789 0.55561 0.41743 0.00000
H483 H 0.32109 0.58040 0.44695 0.00000
H484 H 0.29927 0.61833 0.37209 0.00000
H485 H 0.33316 0.58067 0.31985 0.00000
H486 H 0.30758 0.59643 0.32217 0.00000
C487 C 0.37122 0.71145 0.16130 0.00000
C488 C 0.38755 0.70050 0.14029 0.00000
C489 C 0.37496 0.70555 0.19456 0.00000
C490 C 0.36529 0.67503 0.23604 0.00000
C491 C 0.35029 0.65276 0.24653 0.00000
C492 C 0.35234 0.72780 0.15165 0.00000
C493 C 0.35000 0.73321 0.12087 0.00000
C494 C 0.38489 0.70562 0.10947 0.00000
H495 H 0.34123 0.73520 0.16574 0.00000
H496 H 0.33761 0.74476 0.11430 0.00000
H497 H 0.36362 0.72500 0.07895 0.00000
H498 H 0.40045 0.68955 0.14692 0.00000
H499 H 0.36868 0.71975 0.20676 0.00000
C500 C 0.33890 0.62412 0.28914 0.00000
C501 C 0.35338 0.64776 0.28050 0.00000
H502 H 0.38332 0.67143 0.23929 0.00000
H503 H 0.33229 0.65572 0.24205 0.00000
H504 H 0.35563 0.63768 0.23519 0.00000
H505 H 0.36088 0.68968 0.24863 0.00000
H506 H 0.39314 0.70363 0.19870 0.00000
H507 H 0.32126 0.62587 0.28250 0.00000
H508 H 0.34624 0.60955 0.27857 0.00000
N509 N 0.33935 0.61913 0.32267 0.00000
N510 N 0.36147 0.68183 0.20370 0.00000
C511 C 0.36581 0.72176 0.09975 0.00000
C512 C 0.09193 0.16440 0.40106 0.00000
C513 C 0.06652 0.15845 0.39583 0.00000
C514 C 0.05263 0.17352 0.37598 0.00000
C515 C 0.06393 0.19403 0.36154 0.00000
C516 C 0.08910 0.19960 0.36690 0.00000
C517 C 0.10290 0.18461 0.38705 0.00000
C518 C 0.10792 0.14807 0.42188 0.00000
H519 H 0.05892 0.14452 0.40549 0.00000
H520 H 0.03549 0.16982 0.37228 0.00000
H521 H 0.05440 0.20412 0.34815 0.00000
H522 H 0.11998 0.18851 0.39101 0.00000
H523 H 0.09920 0.13202 0.42586 0.00000
H524 H 0.12418 0.14422 0.41204 0.00000
C525 C 0.20304 0.13777 0.61616 0.00000
C526 C 0.19484 0.11817 0.63483 0.00000
C527 C 0.18354 0.15255 0.59832 0.00000
C528 C 0.15799 0.15375 0.55087 0.00000
C529 C 0.15328 0.14313 0.52005 0.00000
C530 C 0.22858 0.14373 0.61467 0.00000
C531 C 0.24580 0.13004 0.63209 0.00000
C532 C 0.21217 0.10424 0.65184 0.00000
H533 H 0.23422 0.15690 0.60205 0.00000
H534 H 0.26305 0.13441 0.63170 0.00000
H535 H 0.24963 0.10044 0.66112 0.00000
H536 H 0.17750 0.11429 0.63596 0.00000
H537 H 0.18990 0.16973 0.59462 0.00000
C538 C 0.12941 0.14631 0.47163 0.00000
C539 C 0.13439 0.15896 0.50180 0.00000
H540 H 0.14205 0.15342 0.56227 0.00000
H541 H 0.16941 0.14230 0.50896 0.00000
H542 H 0.14681 0.12579 0.52200 0.00000
H543 H 0.16308 0.17152 0.54879 0.00000
H544 H 0.16794 0.15395 0.61034 0.00000
H545 H 0.14559 0.14336 0.46129 0.00000
H546 H 0.12143 0.12982 0.47515 0.00000
N547 N 0.11258 0.16183 0.45139 0.00000
N548 N 0.17761 0.14014 0.56866 0.00000
C549 C 0.23777 0.11001 0.65010 0.00000
C550 C 0.79328 0.85861 0.12305 0.00000
C551 C 0.79127 0.84161 0.14719 0.00000
C552 C 0.78905 0.85117 0.17648 0.00000
C553 C 0.78872 0.87717 0.18151 0.00000
C554 C 0.79065 0.89371 0.15737 0.00000
C555 C 0.79313 0.88408 0.12806 0.00000
C556 C 0.79504 0.84901 0.09071 0.00000
H557 H 0.79138 0.82404 0.14376 0.00000
H558 H 0.78775 0.83998 0.19299 0.00000
H559 H 0.78722 0.88347 0.20140 0.00000
H560 H 0.79473 0.89528 0.11158 0.00000
H561 H 0.79035 0.83105 0.09000 0.00000
H562 H 0.78316 0.85845 0.07780 0.00000
C563 C 0.90168 0.83326 0.90573 0.00000
C564 C 0.90477 0.80832 0.89620 0.00000
C565 C 0.90172 0.83880 0.93937 0.00000
C566 C 0.87537 0.84038 0.98618 0.00000
C567 C 0.84959 0.83972 0.99990 0.00000
C568 C 0.89916 0.85247 0.88453 0.00000
C569 C 0.89989 0.84657 0.85377 0.00000
C570 C 0.90507 0.80244 0.86541 0.00000
H571 H 0.89700 0.86933 0.89085 0.00000
H572 H 0.89879 0.85961 0.83932 0.00000
H573 H 0.90201 0.81777 0.82337 0.00000
H574 H 0.90666 0.79535 0.91061 0.00000
H575 H 0.90768 0.85617 0.94275 0.00000
C576 C 0.82338 0.84400 0.04651 0.00000
C577 C 0.84983 0.84651 0.03369 0.00000
H578 H 0.88590 0.82754 0.99618 0.00000
H579 H 0.83859 0.85170 0.98911 0.00000
H580 H 0.84238 0.82272 0.99742 0.00000
H581 H 0.88300 0.85695 0.99032 0.00000
H582 H 0.91356 0.82724 0.94955 0.00000
H583 H 0.81169 0.85422 0.03430 0.00000
H584 H 0.81800 0.82629 0.04509 0.00000
N585 N 0.82172 0.85236 0.07901 0.00000
N586 N 0.87594 0.83578 0.95298 0.00000
C587 C 0.90225 0.82163 0.84417 0.00000
C588 C 0.66460 0.40928 0.15182 0.00000
C589 C 0.65935 0.43491 0.14711 0.00000
C590 C 0.67461 0.44857 0.12723 0.00000
C591 C 0.69460 0.43682 0.11227 0.00000
C592 C 0.69947 0.41144 0.11713 0.00000
C593 C 0.68431 0.39786 0.13730 0.00000
C594 C 0.64803 0.39354 0.17266 0.00000
H595 H 0.64577 0.44281 0.15712 0.00000
H596 H 0.67138 0.46586 0.12388 0.00000
H597 H 0.70483 0.44620 0.09887 0.00000
H598 H 0.68773 0.38063 0.14092 0.00000
H599 H 0.63229 0.40270 0.17704 0.00000
H600 H 0.64358 0.37752 0.16262 0.00000
C601 C 0.63706 0.29650 0.36553 0.00000
C602 C 0.61793 0.30508 0.38466 0.00000
C603 C 0.65222 0.31576 0.34777 0.00000
C604 C 0.65365 0.34181 0.30072 0.00000
C605 C 0.64284 0.34720 0.27015 0.00000
C606 C 0.64223 0.27082 0.36353 0.00000
C607 C 0.62823 0.25382 0.38090 0.00000
C608 C 0.60368 0.28798 0.40162 0.00000
H609 H 0.65509 0.26493 0.35060 0.00000
H610 H 0.63208 0.23645 0.38016 0.00000
H611 H 0.59885 0.25054 0.41035 0.00000
H612 H 0.61458 0.32252 0.38614 0.00000
H613 H 0.66915 0.30893 0.34368 0.00000
C614 C 0.64618 0.37154 0.22207 0.00000
C615 C 0.65902 0.36582 0.25195 0.00000
H616 H 0.65392 0.35763 0.31238 0.00000
H617 H 0.64139 0.33123 0.25882 0.00000
H618 H 0.62571 0.35418 0.27250 0.00000
H619 H 0.67123 0.33622 0.29826 0.00000
H620 H 0.65422 0.33117 0.36001 0.00000
H621 H 0.64263 0.35557 0.21153 0.00000
H622 H 0.62999 0.37996 0.22600 0.00000
N623 N 0.66197 0.38812 0.20185 0.00000
N624 N 0.63966 0.32240 0.31841 0.00000
C625 C 0.60865 0.26224 0.39937 0.00000
C626 C 0.28788 0.59161 0.67784 0.00000
C627 C 0.26233 0.58491 0.67964 0.00000
C628 C 0.24858 0.58224 0.65291 0.00000
C629 C 0.26016 0.58605 0.62496 0.00000
C630 C 0.28546 0.59259 0.62359 0.00000
C631 C 0.29913 0.59551 0.65044 0.00000
C632 C 0.30372 0.59406 0.70637 0.00000
H633 H 0.25454 0.58223 0.69853 0.00000
H634 H 0.23135 0.57781 0.65373 0.00000
H635 H 0.25072 0.58420 0.60699 0.00000
H636 H 0.31630 0.60024 0.64960 0.00000
H637 H 0.29472 0.58640 0.72352 0.00000
H638 H 0.31983 0.58499 0.70370 0.00000
C639 C 0.40003 0.70957 0.84220 0.00000
C640 C 0.39160 0.70898 0.87208 0.00000
C641 C 0.38068 0.70809 0.81698 0.00000
C642 C 0.35482 0.67907 0.78498 0.00000
C643 C 0.34969 0.65265 0.77473 0.00000
C644 C 0.42566 0.71199 0.83606 0.00000
C645 C 0.44274 0.71394 0.85999 0.00000
C646 C 0.40878 0.71052 0.89598 0.00000
H647 H 0.43145 0.71233 0.81592 0.00000
H648 H 0.46007 0.71619 0.85592 0.00000
H649 H 0.44623 0.71328 0.90583 0.00000
H650 H 0.37419 0.70752 0.87619 0.00000
H651 H 0.38733 0.71670 0.79895 0.00000
C652 C 0.32552 0.62425 0.74032 0.00000
C653 C 0.33096 0.65158 0.74829 0.00000
H654 H 0.33895 0.68643 0.79249 0.00000
H655 H 0.36572 0.64473 0.76850 0.00000
H656 H 0.34290 0.64282 0.79178 0.00000
H657 H 0.36022 0.68912 0.76745 0.00000
H658 H 0.36520 0.71695 0.82329 0.00000
H659 H 0.34158 0.61545 0.73651 0.00000
H660 H 0.31727 0.61601 0.75758 0.00000
N661 N 0.30885 0.62168 0.71289 0.00000
N662 N 0.37431 0.68127 0.80910 0.00000
C663 C 0.43447 0.71265 0.88984 0.00000
C664 C 0.29853 0.09231 0.65333 0.00000
C665 C 0.29924 0.06598 0.65633 0.00000
C666 C 0.28355 0.05451 0.67765 0.00000
C667 C 0.26740 0.06905 0.69548 0.00000
C668 C 0.26688 0.09505 0.69214 0.00000
C669 C 0.28282 0.10652 0.67097 0.00000
C670 C 0.31482 0.10550 0.62981 0.00000
H671 H 0.31008 0.05616 0.64418 0.00000
H672 H 0.28385 0.03682 0.68003 0.00000
H673 H 0.25684 0.06114 0.70985 0.00000
H674 H 0.28272 0.12425 0.66886 0.00000
H675 H 0.32145 0.09303 0.61538 0.00000
H676 H 0.30450 0.11777 0.61848 0.00000
C677 C 0.45887 0.22274 0.59198 0.00000
C678 C 0.47786 0.21206 0.57420 0.00000
C679 C 0.44581 0.20630 0.61530 0.00000
C680 C 0.41117 0.17510 0.62397 0.00000
C681 C 0.38803 0.16231 0.61206 0.00000
C682 C 0.45265 0.24808 0.58854 0.00000
C683 C 0.46564 0.26267 0.56732 0.00000
C684 C 0.49052 0.22661 0.55265 0.00000
H685 H 0.43981 0.25536 0.60044 0.00000
H686 H 0.46189 0.28001 0.56542 0.00000
H687 H 0.49226 0.26176 0.53411 0.00000
H688 H 0.48216 0.19492 0.57673 0.00000
H689 H 0.43966 0.21697 0.63195 0.00000
C690 C 0.35208 0.13313 0.62224 0.00000
C691 C 0.37440 0.14670 0.63630 0.00000
H692 H 0.42321 0.16206 0.63055 0.00000
H693 H 0.37635 0.17521 0.60411 0.00000
H694 H 0.39279 0.15119 0.59517 0.00000
H695 H 0.40649 0.18504 0.64189 0.00000
H696 H 0.45808 0.19423 0.62374 0.00000
H697 H 0.34126 0.14554 0.61193 0.00000
H698 H 0.35827 0.12114 0.60700 0.00000
N699 N 0.33651 0.11901 0.64521 0.00000
N700 N 0.42404 0.19201 0.60192 0.00000
C701 C 0.48410 0.25192 0.54894 0.00000
C702 C 0.78249 0.52824 0.91709 0.00000
C703 C 0.78096 0.50670 0.89879 0.00000
C704 C 0.77827 0.48313 0.91256 0.00000
C705 C 0.77700 0.48115 0.94396 0.00000
C706 C 0.77847 0.50265 0.96172 0.00000
C707 C 0.78143 0.52622 0.94786 0.00000
C708 C 0.78474 0.55434 0.90298 0.00000
H709 H 0.78170 0.50806 0.87756 0.00000
H710 H 0.77728 0.46845 0.90057 0.00000
H711 H 0.77518 0.46514 0.95310 0.00000
H712 H 0.78271 0.54088 0.95989 0.00000
H713 H 0.78069 0.55342 0.88132 0.00000
H714 H 0.77260 0.56592 0.91264 0.00000
C715 C 0.89276 0.70667 0.87309 0.00000
C716 C 0.89677 0.71248 0.84270 0.00000
C717 C 0.89245 0.67914 0.88255 0.00000
C718 C 0.86583 0.64038 0.88727 0.00000
C719 C 0.84002 0.62893 0.88656 0.00000
C720 C 0.88967 0.72595 0.89409 0.00000
C721 C 0.89075 0.75106 0.88448 0.00000
C722 C 0.89742 0.73761 0.83309 0.00000
H723 H 0.88690 0.72213 0.91462 0.00000
H724 H 0.88927 0.76420 0.89876 0.00000
H725 H 0.89404 0.77392 0.84767 0.00000
H726 H 0.89904 0.69938 0.82854 0.00000
H727 H 0.89777 0.67778 0.90379 0.00000
C728 C 0.81346 0.59062 0.89448 0.00000
C729 C 0.83986 0.60143 0.89751 0.00000
H730 H 0.87675 0.63093 0.87326 0.00000
H731 H 0.82866 0.63901 0.89945 0.00000
H732 H 0.83343 0.62962 0.86577 0.00000
H733 H 0.87286 0.63832 0.90770 0.00000
H734 H 0.90463 0.66965 0.87013 0.00000
H735 H 0.80147 0.60169 0.90514 0.00000
H736 H 0.80870 0.59032 0.87303 0.00000
N737 N 0.81135 0.56428 0.90713 0.00000
N738 N 0.86672 0.66763 0.87900 0.00000
C739 C 0.89404 0.75693 0.85404 0.00000
C740 C 0.71518 0.89247 0.14085 0.00000
C741 C 0.72355 0.91517 0.12805 0.00000
C742 C 0.73890 0.93106 0.14525 0.00000
C743 C 0.74585 0.92434 0.17458 0.00000
C744 C 0.73747 0.90178 0.18685 0.00000
C745 C 0.72186 0.88600 0.16966 0.00000
C746 C 0.69898 0.87429 0.12260 0.00000
H747 H 0.71893 0.91966 0.10818 0.00000
H748 H 0.74463 0.94645 0.13701 0.00000
H749 H 0.75624 0.93519 0.18606 0.00000
H750 H 0.71590 0.87075 0.17806 0.00000
H751 H 0.69951 0.87897 0.10109 0.00000
H752 H 0.70570 0.85701 0.12460 0.00000
C753 C 0.53042 0.79239 0.09949 0.00000
C754 C 0.51948 0.79663 0.07124 0.00000
C755 C 0.54486 0.81375 0.11442 0.00000
C756 C 0.58654 0.83566 0.11792 0.00000
C757 C 0.61409 0.83558 0.11048 0.00000
C758 C 0.52752 0.76913 0.11363 0.00000
C759 C 0.51351 0.75022 0.09939 0.00000
C760 C 0.50583 0.77752 0.05683 0.00000
H761 H 0.53492 0.76616 0.13267 0.00000
H762 H 0.51099 0.73462 0.10922 0.00000
H763 H 0.49434 0.74100 0.06104 0.00000
H764 H 0.52132 0.81247 0.06179 0.00000
H765 H 0.54420 0.81166 0.13650 0.00000
C766 C 0.65602 0.85631 0.11688 0.00000
C767 C 0.62862 0.85659 0.12685 0.00000
H768 H 0.57921 0.85171 0.11092 0.00000
H769 H 0.62133 0.81909 0.11613 0.00000
H770 H 0.61622 0.83764 0.08851 0.00000
H771 H 0.58461 0.83505 0.14001 0.00000
H772 H 0.53670 0.82994 0.10938 0.00000
H773 H 0.66300 0.83929 0.11999 0.00000
H774 H 0.65691 0.86013 0.09518 0.00000
N775 N 0.67198 0.87512 0.13387 0.00000
N776 N 0.57192 0.81448 0.10437 0.00000
C777 C 0.50316 0.75413 0.07082 0.00000
C778 C 0.63040 0.19345 0.46367 0.00000
C779 C 0.64364 0.20244 0.48889 0.00000
C780 C 0.63950 0.22724 0.49841 0.00000
C781 C 0.62239 0.24267 0.48315 0.00000
C782 C 0.60939 0.23345 0.45832 0.00000
C783 C 0.61377 0.20867 0.44863 0.00000
C784 C 0.63384 0.16635 0.45304 0.00000
H785 H 0.65513 0.19196 0.49927 0.00000
H786 H 0.64832 0.23360 0.51528 0.00000
H787 H 0.61970 0.25942 0.48974 0.00000
H788 H 0.60516 0.20241 0.43153 0.00000
H789 H 0.64249 0.15648 0.46878 0.00000
H790 H 0.61718 0.15859 0.44942 0.00000
C791 C 0.69659 0.05243 0.28985 0.00000
C792 C 0.71438 0.03492 0.30001 0.00000
C793 C 0.69736 0.07903 0.30253 0.00000
C794 C 0.68357 0.10691 0.34499 0.00000
C795 C 0.66728 0.11028 0.37232 0.00000
C796 C 0.67898 0.04547 0.26809 0.00000
C797 C 0.67938 0.02094 0.25648 0.00000
C798 C 0.71446 0.01028 0.28870 0.00000
H799 H 0.66689 0.05720 0.26122 0.00000
H800 H 0.66786 0.01632 0.24120 0.00000
H801 H 0.69630 0.98651 0.25980 0.00000
H802 H 0.72641 0.03973 0.31460 0.00000
H803 H 0.69038 0.09084 0.28753 0.00000
C804 C 0.65173 0.13924 0.41268 0.00000
C805 C 0.66737 0.13757 0.38402 0.00000
H806 H 0.70115 0.11070 0.35060 0.00000
H807 H 0.64983 0.10538 0.36727 0.00000
H808 H 0.67323 0.09895 0.38845 0.00000
H809 H 0.67843 0.11929 0.32961 0.00000
H810 H 0.71505 0.08385 0.30631 0.00000
H811 H 0.63478 0.13240 0.40871 0.00000
H812 H 0.65962 0.12882 0.42843 0.00000
N813 N 0.64922 0.16592 0.42417 0.00000
N814 N 0.68266 0.08120 0.33141 0.00000
C815 C 0.69664 0.00321 0.26717 0.00000
C816 C 0.36032 0.80091 0.95997 0.00000
C817 C 0.34376 0.78712 0.97835 0.00000
C818 C 0.34977 0.76214 0.98541 0.00000
C819 C 0.37192 0.75121 0.97446 0.00000
C820 C 0.38811 0.76513 0.95639 0.00000
C821 C 0.38192 0.79010 0.94909 0.00000
C822 C 0.35483 0.82839 0.95240 0.00000
H823 H 0.32885 0.79456 0.98586 0.00000
H824 H 0.33879 0.75257 0.99768 0.00000
H825 H 0.37584 0.73429 0.97935 0.00000
H826 H 0.39277 0.79956 0.93652 0.00000
H827 H 0.34156 0.83489 0.96586 0.00000
H828 H 0.37017 0.83860 0.95557 0.00000
C829 C 0.31141 0.95305 0.79147 0.00000
C830 C 0.28938 0.96658 0.79761 0.00000
C831 C 0.31236 0.92525 0.79965 0.00000
C832 C 0.32095 0.89421 0.84092 0.00000
C833 C 0.33111 0.88946 0.87195 0.00000
C834 C 0.33171 0.96496 0.77755 0.00000
C835 C 0.32976 0.99044 0.76971 0.00000
C836 C 0.28765 0.99218 0.79019 0.00000
H837 H 0.34665 0.95592 0.77343 0.00000
H838 H 0.34325 0.99843 0.75962 0.00000
H839 H 0.30722 0.02155 0.77195 0.00000
H840 H 0.27558 0.95842 0.80686 0.00000
H841 H 0.32421 0.91653 0.78606 0.00000
C842 C 0.34201 0.85787 0.91165 0.00000
C843 C 0.33304 0.86121 0.87934 0.00000
H844 H 0.30365 0.88750 0.83988 0.00000
H845 H 0.34800 0.89717 0.87363 0.00000
H846 H 0.32008 0.89771 0.88690 0.00000
H847 H 0.33123 0.88474 0.82628 0.00000
H848 H 0.29552 0.91776 0.79669 0.00000
H849 H 0.35786 0.86727 0.91447 0.00000
H850 H 0.32937 0.86502 0.92547 0.00000
N851 N 0.34635 0.83057 0.91980 0.00000
N852 N 0.32048 0.92128 0.83180 0.00000
C853 C 0.30807 0.00419 0.77658 0.00000
C854 C 0.95401 0.26593 0.18801 0.00000
C855 C 0.96521 0.24598 0.17209 0.00000
C856 C 0.99016 0.23948 0.17869 0.00000
C857 C 0.00359 0.25256 0.20084 0.00000
C858 C 0.99220 0.27218 0.21643 0.00000
C859 C 0.96727 0.27882 0.20955 0.00000
C860 C 0.92666 0.27318 0.18211 0.00000
H861 H 0.95609 0.23708 0.15722 0.00000
H862 H 0.99800 0.22616 0.16812 0.00000
H863 H 0.02045 0.24804 0.20516 0.00000
H864 H 0.95953 0.29236 0.21990 0.00000
H865 H 0.91826 0.25975 0.17049 0.00000
H866 H 0.91767 0.27509 0.20149 0.00000
C867 C 0.80820 0.40417 0.10347 0.00000
C868 C 0.79248 0.39524 0.08052 0.00000
C869 C 0.83545 0.39534 0.10424 0.00000
C870 C 0.86468 0.36123 0.12154 0.00000
C871 C 0.86851 0.33808 0.14036 0.00000
C872 C 0.79894 0.42121 0.12465 0.00000
C873 C 0.77390 0.42933 0.12260 0.00000
C874 C 0.76732 0.40308 0.07884 0.00000
H875 H 0.80946 0.42724 0.14023 0.00000
H876 H 0.76772 0.44134 0.13649 0.00000
H877 H 0.74089 0.42498 0.09957 0.00000
H878 H 0.79885 0.38382 0.06606 0.00000
H879 H 0.84592 0.40833 0.11400 0.00000
C880 C 0.89858 0.30573 0.15991 0.00000
C881 C 0.89633 0.33008 0.14204 0.00000
H882 H 0.86989 0.35745 0.10067 0.00000
H883 H 0.86222 0.34133 0.16097 0.00000
H884 H 0.85849 0.32413 0.13184 0.00000
H885 H 0.87582 0.37465 0.12916 0.00000
H886 H 0.84159 0.39314 0.08339 0.00000
H887 H 0.89046 0.30798 0.17973 0.00000
H888 H 0.88958 0.29223 0.14916 0.00000
N889 N 0.92562 0.29777 0.16464 0.00000
N890 N 0.83826 0.37087 0.12103 0.00000
C891 C 0.75795 0.41991 0.10025 0.00000
C892 C 0.11624 0.28082 0.37963 0.00000
C893 C 0.09757 0.26852 0.39657 0.00000
C894 C 0.08060 0.25265 0.38165 0.00000
C895 C 0.08234 0.24905 0.35049 0.00000
C896 C 0.10096 0.26130 0.33410 0.00000
C897 C 0.11779 0.27740 0.34907 0.00000
C898 C 0.13553 0.29773 0.39510 0.00000
H899 H 0.09648 0.27087 0.41765 0.00000
H900 H 0.06788 0.24429 0.39270 0.00000
H901 H 0.07078 0.23829 0.34058 0.00000
H902 H 0.13033 0.28598 0.33793 0.00000
H903 H 0.13511 0.29485 0.41705 0.00000
H904 H 0.15261 0.29355 0.38777 0.00000
C905 C 0.20099 0.47301 0.42160 0.00000
C906 C 0.20103 0.48096 0.45168 0.00000
C907 C 0.17905 0.45714 0.41042 0.00000
C908 C 0.16167 0.41340 0.40643 0.00000
C909 C 0.16613 0.38563 0.40955 0.00000
C910 C 0.22053 0.48009 0.40241 0.00000
C911 C 0.24001 0.49527 0.41348 0.00000
C912 C 0.22077 0.49579 0.46281 0.00000
H913 H 0.22062 0.47472 0.38210 0.00000
H914 H 0.25298 0.50061 0.40036 0.00000
H915 H 0.25409 0.51231 0.45115 0.00000
H916 H 0.18767 0.47628 0.46459 0.00000
H917 H 0.17685 0.45984 0.38858 0.00000
C918 C 0.14938 0.34203 0.40241 0.00000
C919 C 0.14427 0.36983 0.39687 0.00000
H920 H 0.14667 0.41793 0.41837 0.00000
H921 H 0.18181 0.38112 0.39882 0.00000
H922 H 0.16851 0.38148 0.43106 0.00000
H923 H 0.15790 0.41717 0.38514 0.00000
H924 H 0.16345 0.46263 0.42062 0.00000
H925 H 0.16603 0.33765 0.39404 0.00000
H926 H 0.14987 0.33890 0.42429 0.00000
N927 N 0.12969 0.32517 0.38837 0.00000
N928 N 0.18316 0.42953 0.41635 0.00000
C929 C 0.24049 0.50265 0.44370 0.00000
C930 C 0.21774 0.65134 0.58772 0.00000
C931 C 0.24049 0.66411 0.59301 0.00000
C932 C 0.26319 0.65125 0.58848 0.00000
C933 C 0.26316 0.62620 0.57872 0.00000
C934 C 0.24050 0.61389 0.57351 0.00000
C935 C 0.21776 0.62675 0.57837 0.00000
C936 C 0.19260 0.66485 0.59159 0.00000
H937 H 0.24050 0.68107 0.59948 0.00000
H938 H 0.27867 0.65954 0.59203 0.00000
H939 H 0.27861 0.61764 0.57571 0.00000
H940 H 0.20228 0.61834 0.57515 0.00000
H941 H 0.19541 0.68318 0.59289 0.00000
H942 H 0.18176 0.66154 0.57391 0.00000
C943 C 0.03212 0.67685 0.70890 0.00000
C944 C 0.02799 0.70078 0.72116 0.00000
C945 C 0.05879 0.66640 0.70865 0.00000
C946 C 0.09973 0.66543 0.68058 0.00000
C947 C 0.11388 0.67153 0.65225 0.00000
C948 C 0.01192 0.66290 0.69779 0.00000
C949 C 0.98758 0.67300 0.69919 0.00000
C950 C 0.00368 0.71100 0.72207 0.00000
H951 H 0.01461 0.64676 0.68942 0.00000
H952 H 0.97375 0.66335 0.69235 0.00000
H953 H 0.96707 0.70409 0.71070 0.00000
H954 H 0.04170 0.71013 0.72887 0.00000
H955 H 0.05813 0.64784 0.70915 0.00000
C956 C 0.15415 0.66804 0.62333 0.00000
C957 C 0.14040 0.65985 0.65178 0.00000
H958 H 0.10887 0.67279 0.69783 0.00000
H959 H 0.10424 0.66525 0.63474 0.00000
H960 H 0.11531 0.68999 0.65024 0.00000
H961 H 0.09963 0.64701 0.68332 0.00000
H962 H 0.06773 0.67215 0.72692 0.00000
H963 H 0.14374 0.66382 0.60561 0.00000
H964 H 0.15641 0.68644 0.62372 0.00000
N965 N 0.17962 0.65563 0.62004 0.00000
N966 N 0.07319 0.67475 0.68119 0.00000
C967 C 0.98348 0.69716 0.71063 0.00000
loop_
_geom_bond_atom_site_label_1
_geom_bond_atom_site_label_2
_geom_bond_distance
_geom_bond_site_symmetry_2
_ccdc_geom_bond_type
C0 C4 1.396 . A
C0 H10 0.930 . S
C0 C24 1.387 . A
Cd1 N11 2.365 . S
Cd1 N12 2.324 . S
Cd1 O13 2.664 . S
Cd1 O14 2.254 1_545 S
Cd1 O22 2.584 . S
Cd1 O23 2.323 . S
C2 O22 1.229 . A
C2 O23 1.236 . A
C3 N11 1.347 . A
C3 H15 0.930 . S
C3 C25 1.384 . A
C4 N11 1.330 . A
C4 H16 0.929 . S
C5 C6 1.407 . A
C5 N12 1.305 . A
C5 H17 0.929 . S
C6 C7 1.347 . A
C6 H18 0.930 . S
C7 C8 1.352 . A
C8 C9 1.363 . A
C8 H19 0.930 . S
C9 N12 1.287 . A
C9 H20 0.929 . S
O13 C21 1.236 . A
O14 C21 1.257 1_565 A
C24 C25 1.401 . A
C26 C30 1.396 . A
C26 H36 0.930 . S
C26 C50 1.387 . A
Cd27 N37 2.365 . S
Cd27 N38 2.324 . S
Cd27 O39 2.664 . S
Cd27 O40 2.254 1_655 S
Cd27 O48 2.584 . S
Cd27 O49 2.323 . S
C28 O48 1.229 . A
C28 O49 1.236 . A
C29 N37 1.347 . A
C29 H41 0.930 . S
C29 C51 1.384 . A
C30 N37 1.330 . A
C30 H42 0.929 . S
C31 C32 1.407 . A
C31 N38 1.305 . A
C31 H43 0.929 . S
C32 C33 1.347 . A
C32 H44 0.930 . S
C33 C34 1.352 . A
C34 C35 1.363 . A
C34 H45 0.930 . S
C35 N38 1.287 . A
C35 H46 0.929 . S
O39 C47 1.236 . A
O40 C47 1.257 1_455 A
C50 C51 1.401 . A
C52 C56 1.396 . A
C52 H62 0.930 . S
C52 C76 1.387 . A
Cd53 N63 2.365 . S
Cd53 N64 2.324 . S
Cd53 O65 2.664 . S
Cd53 O66 2.254 1_565 S
Cd53 O74 2.584 . S
Cd53 O75 2.323 . S
C54 O74 1.229 . A
C54 O75 1.236 . A
C55 N63 1.347 . A
C55 H67 0.930 . S
C55 C77 1.384 . A
C56 N63 1.330 . A
C56 H68 0.929 . S
C57 C58 1.407 . A
C57 N64 1.305 . A
C57 H69 0.929 . S
C58 C59 1.347 . A
C58 H70 0.930 . S
C59 C60 1.352 . A
C60 C61 1.363 . A
C60 H71 0.930 . S
C61 N64 1.287 . A
C61 H72 0.929 . S
O65 C73 1.236 . A
O66 C73 1.257 1_545 A
C76 C77 1.401 . A
C78 C82 1.396 . A
C78 H88 0.930 . S
C78 C102 1.387 . A
Cd79 N89 2.365 . S
Cd79 N90 2.324 . S
Cd79 O91 2.664 . S
Cd79 O92 2.254 . S
Cd79 O100 2.584 . S
Cd79 O101 2.323 . S
C80 O100 1.229 . A
C80 O101 1.236 . A
C81 N89 1.347 . A
C81 H93 0.930 . S
C81 C103 1.384 . A
C82 N89 1.330 . A
C82 H94 0.929 . S
C83 C84 1.407 . A
C83 N90 1.305 . A
C83 H95 0.929 . S
C84 C85 1.347 . A
C84 H96 0.930 . S
C85 C86 1.352 . A
C86 C87 1.363 . A
C86 H97 0.930 . S
C87 N90 1.287 . A
C87 H98 0.929 . S
O91 C99 1.236 . A
O92 C99 1.257 . A
C102 C103 1.401 . A
C104 C108 1.396 1_556 A
C104 H114 0.930 . S
C104 C128 1.387 . A
Cd105 N115 2.381 . S
Cd105 N116 2.324 . S
Cd105 O117 2.664 . S
Cd105 O118 2.254 . S
Cd105 O126 2.584 . S
Cd105 O127 2.323 1_554 S
C106 O126 1.216 1_556 A
C106 O127 1.237 . A
C107 N115 1.327 1_556 A
C107 H119 0.930 . S
C107 C129 1.384 . A
C108 N115 1.335 . A
C108 H120 0.929 . S
C109 C110 1.407 . A
C109 N116 1.305 . A
C109 H121 0.929 . S
C110 C111 1.347 . A
C110 H122 0.930 . S
C111 C112 1.352 . A
C112 C113 1.363 . A
C112 H123 0.930 . S
C113 N116 1.287 . A
C113 H124 0.929 . S
O117 C125 1.236 . A
O118 C125 1.257 . A
C128 C129 1.401 . A
C130 C134 1.396 . A
C130 H140 0.930 . S
C130 C154 1.387 . A
Cd131 N141 2.365 1_556 S
Cd131 N142 2.324 . S
Cd131 O143 2.664 . S
Cd131 O144 2.254 . S
Cd131 O152 2.584 1_556 S
Cd131 O153 2.323 1_556 S
C132 O152 1.229 . A
C132 O153 1.236 . A
C133 N141 1.347 . A
C133 H145 0.930 . S
C133 C155 1.384 . A
C134 N141 1.330 . A
C134 H146 0.929 1_554 S
C135 C136 1.407 . A
C135 N142 1.305 . A
C135 H147 0.929 . S
C136 C137 1.347 . A
C136 H148 0.930 . S
C137 C138 1.352 . A
C138 C139 1.363 . A
C138 H149 0.930 . S
C139 N142 1.287 . A
C139 H150 0.929 . S
O143 C151 1.236 . A
O144 C151 1.257 . A
C154 C155 1.401 . A
C156 C160 1.396 . A
C156 H166 0.930 . S
C156 C180 1.387 . A
Cd157 N167 2.365 . S
Cd157 N168 2.324 . S
Cd157 O169 2.664 . S
Cd157 O170 2.254 1_455 S
Cd157 O178 2.584 . S
Cd157 O179 2.323 . S
C158 O178 1.229 . A
C158 O179 1.236 . A
C159 N167 1.347 . A
C159 H171 0.930 . S
C159 C181 1.384 . A
C160 N167 1.330 . A
C160 H172 0.929 . S
C161 C162 1.407 . A
C161 N168 1.305 . A
C161 H173 0.929 . S
C162 C163 1.347 . A
C162 H174 0.930 . S
C163 C164 1.352 . A
C164 C165 1.363 . A
C164 H175 0.930 . S
C165 N168 1.287 . A
C165 H176 0.929 . S
O169 C177 1.236 . A
O170 C177 1.257 1_655 A
C180 C181 1.401 . A
C182 C186 1.396 . A
C182 H192 0.930 . S
C182 C206 1.387 . A
Cd183 N193 2.365 . S
Cd183 N194 2.324 . S
Cd183 O195 2.664 . S
Cd183 O196 2.254 . S
Cd183 O204 2.584 . S
Cd183 O205 2.323 . S
C184 O204 1.229 . A
C184 O205 1.236 . A
C185 N193 1.347 . A
C185 H197 0.930 . S
C185 C207 1.384 . A
C186 N193 1.330 . A
C186 H198 0.929 . S
C187 C188 1.407 . A
C187 N194 1.305 . A
C187 H199 0.929 . S
C188 C189 1.347 . A
C188 H200 0.930 . S
C189 C190 1.352 . A
C190 C191 1.363 . A
C190 H201 0.930 . S
C191 N194 1.287 . A
C191 H202 0.929 . S
O195 C203 1.236 . A
O196 C203 1.257 . A
C206 C207 1.401 . A
C208 C209 1.396 . A
C208 C213 1.361 1_455 A
C208 C214 1.515 . S
C209 C210 1.391 1_455 A
C209 H215 0.939 . S
C210 C211 1.389 . A
C210 H216 0.939 . S
C211 C212 1.380 . A
C211 H217 0.941 . S
C212 C213 1.394 . A
C213 H218 0.940 . S
C214 H219 0.980 . S
C214 H220 0.982 . S
C214 N243 1.509 . S
C221 C222 1.390 1_565 A
C221 C223 1.516 . S
C221 C226 1.381 1_565 A
C222 C228 1.392 . A
C222 H232 0.939 1_545 S
C223 H233 0.980 . S
C223 H240 0.981 . S
C223 N244 1.495 . S
C224 C225 1.490 . S
C224 H236 0.980 . S
C224 H239 0.980 . S
C224 N244 1.484 . S
C225 C235 1.529 . S
C225 H237 0.982 . S
C225 H238 0.981 . S
C226 C227 1.391 . A
C226 H229 0.939 . S
C227 H230 0.939 . S
C227 C245 1.388 . A
C228 C245 1.387 . A
H231 C245 0.939 . S
C234 C235 1.511 . S
C234 H241 0.980 . S
C234 H242 0.978 . S
C234 N243 1.501 . S
C246 C247 1.396 . A
C246 C251 1.361 1_655 A
C246 C252 1.515 . S
C247 C248 1.391 . A
C247 H253 0.939 . S
C248 C249 1.389 1_655 A
C248 H254 0.939 . S
C249 C250 1.380 . A
C249 H255 0.941 . S
C250 C251 1.394 . A
C251 H256 0.940 . S
C252 H257 0.980 . S
C252 H258 0.982 . S
C252 N281 1.509 . S
C259 C260 1.390 . A
C259 C261 1.511 1_565 S
C259 C264 1.385 . A
C260 C266 1.392 . A
C260 H270 0.939 1_565 S
C261 H271 0.980 . S
C261 H278 0.981 . S
C261 N282 1.495 . S
C262 C263 1.490 . S
C262 H274 0.980 . S
C262 H277 0.980 . S
C262 N282 1.484 . S
C263 C273 1.529 . S
C263 H275 0.982 . S
C263 H276 0.981 . S
C264 C265 1.391 . A
C264 H267 0.939 . S
C265 H268 0.939 . S
C265 C283 1.388 . A
C266 C283 1.387 . A
H269 C283 0.939 . S
C272 C273 1.511 . S
C272 H279 0.980 . S
C272 H280 0.978 . S
C272 N281 1.501 . S
C284 C285 1.396 . A
C284 C289 1.361 . A
C284 C290 1.515 . S
C285 C286 1.391 . A
C285 H291 0.939 . S
C286 C287 1.389 . A
C286 H292 0.939 . S
C287 C288 1.380 . A
C287 H293 0.941 . S
C288 C289 1.394 . A
C289 H294 0.940 . S
C290 H295 0.980 . S
C290 H296 0.982 . S
C290 N319 1.509 . S
C297 C298 1.390 . A
C297 C299 1.511 . S
C297 C302 1.385 . A
C298 C304 1.392 . A
C298 H308 0.939 . S
C299 H309 0.980 . S
C299 H316 0.981 . S
C299 N320 1.495 . S
C300 C301 1.490 . S
C300 H312 0.980 . S
C300 H315 0.980 . S
C300 N320 1.484 . S
C301 C311 1.529 . S
C301 H313 0.982 . S
C301 H314 0.981 . S
C302 C303 1.391 . A
C302 H305 0.939 . S
C303 H306 0.939 . S
C303 C321 1.388 . A
C304 C321 1.387 . A
H307 C321 0.939 . S
C310 C311 1.511 . S
C310 H317 0.980 . S
C310 H318 0.978 . S
C310 N319 1.501 . S
C322 C323 1.396 . A
C322 C327 1.361 . A
C322 C328 1.515 . S
C323 C324 1.391 . A
C323 H329 0.939 . S
C324 C325 1.408 . A
C324 H330 0.939 . S
C325 C326 1.373 1_554 A
C325 H331 0.930 1_554 S
C326 C327 1.394 1_556 A
C327 H332 0.940 . S
C328 H333 0.980 . S
C328 H334 0.982 . S
C328 N357 1.509 . S
C335 C336 1.390 1_556 A
C335 C337 1.511 . S
C335 C340 1.385 . A
C336 C342 1.392 . A
C336 H346 0.939 . S
C337 H347 0.980 . S
C337 H354 0.981 . S
C337 N358 1.495 1_556 S
C338 C339 1.490 1_556 S
C338 H350 0.980 . S
C338 H353 0.980 . S
C338 N358 1.484 1_556 S
C339 C349 1.529 . S
C339 H351 0.982 . S
C339 H352 0.981 . S
C340 C341 1.391 1_556 A
C340 H343 0.939 . S
C341 H344 0.933 1_554 S
C341 C359 1.388 . A
C342 C359 1.387 . A
H345 C359 0.939 . S
C348 C349 1.511 . S
C348 H355 0.980 . S
C348 H356 0.978 . S
C348 N357 1.501 . S
C360 C361 1.396 . A
C360 C365 1.361 . A
C360 C366 1.515 . S
C361 C362 1.391 . A
C361 H367 0.939 . S
C362 C363 1.389 . A
C362 H368 0.939 . S
C363 C364 1.380 . A
C363 H369 0.941 . S
C364 C365 1.394 . A
C365 H370 0.940 . S
C366 H371 0.980 . S
C366 H372 0.982 . S
C366 N395 1.509 . S
C373 C374 1.390 . A
C373 C375 1.511 . S
C373 C378 1.385 . A
C374 C380 1.392 . A
C374 H384 0.939 . S
C375 H385 0.980 . S
C375 H392 0.981 . S
C375 N396 1.495 . S
C376 C377 1.514 . S
C376 H388 0.980 . S
C376 H391 0.980 . S
C376 N396 1.484 . S
C377 C387 1.512 1_556 S
C377 H389 0.972 1_556 S
C377 H390 0.984 . S
C378 C379 1.391 . A
C378 H381 0.939 . S
C379 H382 0.939 . S
C379 C397 1.388 . A
C380 C397 1.387 . A
H383 C397 0.939 . S
C386 C387 1.511 . S
C386 H393 0.980 . S
C386 H394 0.978 . S
C386 N395 1.501 . S
C398 C399 1.396 . A
C398 C403 1.361 . A
C398 C404 1.515 . S
C399 C400 1.391 . A
C399 H405 0.939 . S
C400 C401 1.389 . A
C400 H406 0.939 . S
C401 C402 1.380 . A
C401 H407 0.941 . S
C402 C403 1.394 . A
C403 H408 0.940 . S
C404 H409 0.980 . S
C404 H410 0.982 . S
C404 N433 1.509 . S
C411 C412 1.390 . A
C411 C413 1.511 . S
C411 C416 1.385 . A
C412 C418 1.392 . A
C412 H422 0.939 . S
C413 H423 0.980 . S
C413 H430 0.981 . S
C413 N434 1.495 . S
C414 C415 1.490 . S
C414 H426 0.980 . S
C414 H429 0.980 . S
C414 N434 1.484 . S
C415 C425 1.529 . S
C415 H427 0.982 . S
C415 H428 0.981 . S
C416 C417 1.391 . A
C416 H419 0.939 . S
C417 H420 0.939 . S
C417 C435 1.388 . A
C418 C435 1.387 . A
H421 C435 0.939 . S
C424 C425 1.511 . S
C424 H431 0.980 . S
C424 H432 0.978 . S
C424 N433 1.501 . S
C436 C437 1.396 . A
C436 C441 1.361 . A
C436 C442 1.515 . S
C437 C438 1.391 . A
C437 H443 0.939 . S
C438 C439 1.389 . A
C438 H444 0.939 . S
C439 C440 1.380 . A
C439 H445 0.941 . S
C440 C441 1.394 . A
C441 H446 0.940 . S
C442 H447 0.980 . S
C442 H448 0.982 . S
C442 N471 1.509 . S
C449 C450 1.390 . A
C449 C451 1.511 . S
C449 C454 1.385 . A
C450 C456 1.392 . A
C450 H460 0.939 . S
C451 H461 0.980 . S
C451 H468 0.981 . S
C451 N472 1.495 . S
C452 C453 1.490 . S
C452 H464 0.980 . S
C452 H467 0.980 . S
C452 N472 1.484 . S
C453 C463 1.529 . S
C453 H465 0.982 . S
C453 H466 0.981 . S
C454 C455 1.391 . A
C454 H457 0.939 . S
C455 H458 0.939 . S
C455 C473 1.388 . A
C456 C473 1.387 . A
H459 C473 0.939 . S
C462 C463 1.511 . S
C462 H469 0.980 . S
C462 H470 0.978 . S
C462 N471 1.501 . S
C474 C475 1.396 . A
C474 C479 1.361 . A
C474 C480 1.515 . S
C475 C476 1.391 . A
C475 H481 0.939 . S
C476 C477 1.389 . A
C476 H482 0.939 . S
C477 C478 1.380 . A
C477 H483 0.941 . S
C478 C479 1.394 . A
C479 H484 0.940 . S
C480 H485 0.980 . S
C480 H486 0.982 . S
C480 N509 1.509 . S
C487 C488 1.390 . A
C487 C489 1.511 . S
C487 C492 1.385 . A
C488 C494 1.392 . A
C488 H498 0.939 . S
C489 H499 0.980 . S
C489 H506 0.981 . S
C489 N510 1.495 . S
C490 C491 1.490 . S
C490 H502 0.980 . S
C490 H505 0.980 . S
C490 N510 1.484 . S
C491 C501 1.529 . S
C491 H503 0.982 . S
C491 H504 0.981 . S
C492 C493 1.391 . A
C492 H495 0.939 . S
C493 H496 0.939 . S
C493 C511 1.388 . A
C494 C511 1.387 . A
H497 C511 0.939 . S
C500 C501 1.511 . S
C500 H507 0.980 . S
C500 H508 0.978 . S
C500 N509 1.501 . S
C512 C513 1.396 . A
C512 C517 1.361 . A
C512 C518 1.515 . S
C513 C514 1.391 . A
C513 H519 0.939 . S
C514 C515 1.389 . A
C514 H520 0.939 . S
C515 C516 1.380 . A
C515 H521 0.941 . S
C516 C517 1.394 . A
C517 H522 0.940 . S
C518 H523 0.980 . S
C518 H524 0.982 . S
C518 N547 1.509 . S
C525 C526 1.390 . A
C525 C527 1.511 . S
C525 C530 1.385 . A
C526 C532 1.392 . A
C526 H536 0.939 . S
C527 H537 0.980 . S
C527 H544 0.981 . S
C527 N548 1.495 . S
C528 C529 1.490 . S
C528 H540 0.980 . S
C528 H543 0.980 . S
C528 N548 1.484 . S
C529 C539 1.529 . S
C529 H541 0.982 . S
C529 H542 0.981 . S
C530 C531 1.391 . A
C530 H533 0.939 . S
C531 H534 0.939 . S
C531 C549 1.388 . A
C532 C549 1.387 . A
H535 C549 0.939 . S
C538 C539 1.511 . S
C538 H545 0.980 . S
C538 H546 0.978 . S
C538 N547 1.501 . S
C550 C551 1.396 . A
C550 C555 1.361 . A
C550 C556 1.515 . S
C551 C552 1.391 . A
C551 H557 0.939 . S
C552 C553 1.389 . A
C552 H558 0.939 . S
C553 C554 1.380 . A
C553 H559 0.941 . S
C554 C555 1.394 . A
C555 H560 0.940 . S
C556 H561 0.980 . S
C556 H562 0.982 . S
C556 N585 1.509 . S
C563 C564 1.390 . A
C563 C565 1.511 . S
C563 C568 1.385 . A
C564 C570 1.392 . A
C564 H574 0.939 . S
C565 H575 0.980 . S
C565 H582 0.981 . S
C565 N586 1.495 . S
C566 C567 1.489 . S
C566 H578 0.980 . S
C566 H581 0.980 . S
C566 N586 1.484 . S
C567 C577 1.532 1_556 S
C567 H579 0.981 . S
C567 H580 0.980 . S
C568 C569 1.391 . A
C568 H571 0.939 . S
C569 H572 0.939 . S
C569 C587 1.388 . A
C570 C587 1.387 . A
H573 C587 0.939 . S
C576 C577 1.511 . S
C576 H583 0.980 . S
C576 H584 0.978 . S
C576 N585 1.501 . S
C588 C589 1.396 . A
C588 C593 1.361 . A
C588 C594 1.515 . S
C589 C590 1.391 . A
C589 H595 0.939 . S
C590 C591 1.389 . A
C590 H596 0.939 . S
C591 C592 1.380 . A
C591 H597 0.941 . S
C592 C593 1.394 . A
C593 H598 0.940 . S
C594 H599 0.980 . S
C594 H600 0.982 . S
C594 N623 1.509 . S
C601 C602 1.390 . A
C601 C603 1.511 . S
C601 C606 1.385 . A
C602 C608 1.392 . A
C602 H612 0.939 . S
C603 H613 0.980 . S
C603 H620 0.981 . S
C603 N624 1.495 . S
C604 C605 1.490 . S
C604 H616 0.980 . S
C604 H619 0.980 . S
C604 N624 1.484 . S
C605 C615 1.529 . S
C605 H617 0.982 . S
C605 H618 0.981 . S
C606 C607 1.391 . A
C606 H609 0.939 . S
C607 H610 0.939 . S
C607 C625 1.388 . A
C608 C625 1.387 . A
H611 C625 0.939 . S
C614 C615 1.511 . S
C614 H621 0.980 . S
C614 H622 0.978 . S
C614 N623 1.501 . S
C626 C627 1.396 . A
C626 C631 1.361 . A
C626 C632 1.515 . S
C627 C628 1.391 . A
C627 H633 0.939 . S
C628 C629 1.389 . A
C628 H634 0.939 . S
C629 C630 1.380 . A
C629 H635 0.941 . S
C630 C631 1.394 . A
C631 H636 0.940 . S
C632 H637 0.980 . S
C632 H638 0.982 . S
C632 N661 1.509 . S
C639 C640 1.390 . A
C639 C641 1.511 . S
C639 C644 1.385 . A
C640 C646 1.392 . A
C640 H650 0.939 . S
C641 H651 0.980 . S
C641 H658 0.981 . S
C641 N662 1.495 . S
C642 C643 1.490 . S
C642 H654 0.980 . S
C642 H657 0.980 . S
C642 N662 1.484 . S
C643 C653 1.529 . S
C643 H655 0.982 . S
C643 H656 0.981 . S
C644 C645 1.391 . A
C644 H647 0.939 . S
C645 H648 0.939 . S
C645 C663 1.388 . A
C646 C663 1.387 . A
H649 C663 0.939 . S
C652 C653 1.511 . S
C652 H659 0.980 . S
C652 H660 0.978 . S
C652 N661 1.501 . S
C664 C665 1.396 . A
C664 C669 1.361 . A
C664 C670 1.515 . S
C665 C666 1.391 . A
C665 H671 0.939 . S
C666 C667 1.389 . A
C666 H672 0.939 . S
C667 C668 1.380 . A
C667 H673 0.941 . S
C668 C669 1.394 . A
C669 H674 0.940 . S
C670 H675 0.980 . S
C670 H676 0.982 . S
C670 N699 1.509 . S
C677 C678 1.390 . A
C677 C679 1.511 . S
C677 C682 1.385 . A
C678 C684 1.392 . A
C678 H688 0.939 . S
C679 H689 0.980 . S
C679 H696 0.981 . S
C679 N700 1.495 . S
C680 C681 1.490 . S
C680 H692 0.980 . S
C680 H695 0.980 . S
C680 N700 1.484 . S
C681 C691 1.529 . S
C681 H693 0.982 . S
C681 H694 0.981 . S
C682 C683 1.391 . A
C682 H685 0.939 . S
C683 H686 0.939 . S
C683 C701 1.388 . A
C684 C701 1.387 . A
H687 C701 0.939 . S
C690 C691 1.511 . S
C690 H697 0.980 . S
C690 H698 0.978 . S
C690 N699 1.501 . S
C702 C703 1.396 . A
C702 C707 1.361 . A
C702 C708 1.515 . S
C703 C704 1.391 . A
C703 H709 0.939 . S
C704 C705 1.389 . A
C704 H710 0.939 . S
C705 C706 1.380 . A
C705 H711 0.941 . S
C706 C707 1.394 . A
C707 H712 0.940 . S
C708 H713 0.980 . S
C708 H714 0.982 . S
C708 N737 1.509 . S
C715 C716 1.390 . A
C715 C717 1.511 . S
C715 C720 1.385 . A
C716 C722 1.392 . A
C716 H726 0.939 . S
C717 H727 0.980 . S
C717 H734 0.981 . S
C717 N738 1.495 . S
C718 C719 1.490 . S
C718 H730 0.980 . S
C718 H733 0.980 . S
C718 N738 1.484 . S
C719 C729 1.529 . S
C719 H731 0.982 . S
C719 H732 0.981 . S
C720 C721 1.391 . A
C720 H723 0.939 . S
C721 H724 0.939 . S
C721 C739 1.388 . A
C722 C739 1.387 . A
H725 C739 0.939 . S
C728 C729 1.511 . S
C728 H735 0.980 . S
C728 H736 0.978 . S
C728 N737 1.501 . S
C740 C741 1.396 . A
C740 C745 1.361 . A
C740 C746 1.515 . S
C741 C742 1.391 . A
C741 H747 0.939 . S
C742 C743 1.389 . A
C742 H748 0.939 . S
C743 C744 1.380 . A
C743 H749 0.941 . S
C744 C745 1.394 . A
C745 H750 0.940 . S
C746 H751 0.980 . S
C746 H752 0.982 . S
C746 N775 1.509 . S
C753 C754 1.390 . A
C753 C755 1.511 . S
C753 C758 1.385 . A
C754 C760 1.392 . A
C754 H764 0.939 . S
C755 H765 0.980 . S
C755 H772 0.981 . S
C755 N776 1.495 . S
C756 C757 1.490 . S
C756 H768 0.980 . S
C756 H771 0.980 . S
C756 N776 1.484 . S
C757 C767 1.529 . S
C757 H769 0.982 . S
C757 H770 0.981 . S
C758 C759 1.391 . A
C758 H761 0.939 . S
C759 H762 0.939 . S
C759 C777 1.388 . A
C760 C777 1.387 . A
H763 C777 0.939 . S
C766 C767 1.511 . S
C766 H773 0.980 . S
C766 H774 0.978 . S
C766 N775 1.501 . S
C778 C779 1.396 . A
C778 C783 1.361 . A
C778 C784 1.515 . S
C779 C780 1.391 . A
C779 H785 0.939 . S
C780 C781 1.389 . A
C780 H786 0.939 . S
C781 C782 1.380 . A
C781 H787 0.941 . S
C782 C783 1.394 . A
C783 H788 0.940 . S
C784 H789 0.980 . S
C784 H790 0.982 . S
C784 N813 1.509 . S
C791 C792 1.390 . A
C791 C793 1.511 . S
C791 C796 1.385 . A
C792 C798 1.392 . A
C792 H802 0.939 . S
C793 H803 0.980 . S
C793 H810 0.981 . S
C793 N814 1.495 . S
C794 C795 1.490 . S
C794 H806 0.980 . S
C794 H809 0.980 . S
C794 N814 1.484 . S
C795 C805 1.529 . S
C795 H807 0.982 . S
C795 H808 0.981 . S
C796 C797 1.391 . A
C796 H799 0.939 . S
C797 H800 0.939 . S
C797 C815 1.388 . A
C798 C815 1.387 . A
H801 C815 0.939 1_565 S
C804 C805 1.511 . S
C804 H811 0.980 . S
C804 H812 0.978 . S
C804 N813 1.501 . S
C816 C817 1.396 . A
C816 C821 1.361 . A
C816 C822 1.515 . S
C817 C818 1.391 . A
C817 H823 0.939 . S
C818 C819 1.389 . A
C818 H824 0.939 . S
C819 C820 1.380 . A
C819 H825 0.941 . S
C820 C821 1.394 . A
C821 H826 0.940 . S
C822 H827 0.980 . S
C822 H828 0.982 . S
C822 N851 1.509 . S
C829 C830 1.390 . A
C829 C831 1.511 . S
C829 C834 1.385 . A
C830 C836 1.392 . A
C830 H840 0.939 . S
C831 H841 0.980 . S
C831 H848 0.981 . S
C831 N852 1.495 . S
C832 C833 1.490 . S
C832 H844 0.980 . S
C832 H847 0.980 . S
C832 N852 1.484 . S
C833 C843 1.529 . S
C833 H845 0.982 . S
C833 H846 0.981 . S
C834 C835 1.391 . A
C834 H837 0.939 . S
C835 H838 0.939 . S
C835 C853 1.388 1_565 A
C836 C853 1.387 1_565 A
H839 C853 0.939 . S
C842 C843 1.511 . S
C842 H849 0.980 . S
C842 H850 0.978 . S
C842 N851 1.501 . S
C854 C855 1.396 . A
C854 C859 1.361 . A
C854 C860 1.515 . S
C855 C856 1.391 . A
C855 H861 0.939 . S
C856 C857 1.389 1_655 A
C856 H862 0.939 . S
C857 C858 1.380 1_455 A
C857 H863 0.941 . S
C858 C859 1.394 . A
C859 H864 0.940 . S
C860 H865 0.980 . S
C860 H866 0.982 . S
C860 N889 1.509 . S
C867 C868 1.390 . A
C867 C869 1.511 . S
C867 C872 1.385 . A
C868 C874 1.392 . A
C868 H878 0.939 . S
C869 H879 0.980 . S
C869 H886 0.981 . S
C869 N890 1.495 . S
C870 C871 1.490 . S
C870 H882 0.980 . S
C870 H885 0.980 . S
C870 N890 1.484 . S
C871 C881 1.529 . S
C871 H883 0.982 . S
C871 H884 0.981 . S
C872 C873 1.391 . A
C872 H875 0.939 . S
C873 H876 0.939 . S
C873 C891 1.388 . A
C874 C891 1.387 . A
H877 C891 0.939 . S
C880 C881 1.511 . S
C880 H887 0.980 . S
C880 H888 0.978 . S
C880 N889 1.501 . S
C892 C893 1.396 . A
C892 C897 1.361 . A
C892 C898 1.515 . S
C893 C894 1.391 . A
C893 H899 0.939 . S
C894 C895 1.389 . A
C894 H900 0.939 . S
C895 C896 1.380 . A
C895 H901 0.941 . S
C896 C897 1.394 . A
C897 H902 0.940 . S
C898 H903 0.980 . S
C898 H904 0.982 . S
C898 N927 1.509 . S
C905 C906 1.390 . A
C905 C907 1.511 . S
C905 C910 1.385 . A
C906 C912 1.392 . A
C906 H916 0.939 . S
C907 H917 0.980 . S
C907 H924 0.981 . S
C907 N928 1.495 . S
C908 C909 1.490 . S
C908 H920 0.980 . S
C908 H923 0.980 . S
C908 N928 1.484 . S
C909 C919 1.529 . S
C909 H921 0.982 . S
C909 H922 0.981 . S
C910 C911 1.391 . A
C910 H913 0.939 . S
C911 H914 0.939 . S
C911 C929 1.388 . A
C912 C929 1.387 . A
H915 C929 0.939 . S
C918 C919 1.511 . S
C918 H925 0.980 . S
C918 H926 0.978 . S
C918 N927 1.501 . S
C930 C931 1.396 . A
C930 C935 1.361 . A
C930 C936 1.515 . S
C931 C932 1.391 . A
C931 H937 0.939 . S
C932 C933 1.389 . A
C932 H938 0.939 . S
C933 C934 1.380 . A
C933 H939 0.941 . S
C934 C935 1.394 . A
C935 H940 0.940 . S
C936 H941 0.980 . S
C936 H942 0.982 . S
C936 N965 1.509 . S
C943 C944 1.390 . A
C943 C945 1.511 . S
C943 C948 1.385 . A
C944 C950 1.392 . A
C944 H954 0.939 . S
C945 H955 0.980 . S
C945 H962 0.981 . S
C945 N966 1.495 . S
C946 C947 1.490 . S
C946 H958 0.980 . S
C946 H961 0.980 . S
C946 N966 1.484 . S
C947 C957 1.529 . S
C947 H959 0.982 . S
C947 H960 0.981 . S
C948 C949 1.391 1_455 A
C948 H951 0.939 . S
C949 H952 0.939 . S
C949 C967 1.388 . A
C950 C967 1.387 1_455 A
H953 C967 0.939 . S
C956 C957 1.511 . S
C956 H963 0.980 . S
C956 H964 0.978 . S
C956 N965 1.501 . S
C212 C28 0.456 . S
C228 C2 0.606 . S
C250 C158 0.485 . S
C266 C54 0.737 . S
C288 C80 1.296 . S
C304 C184 1.063 . S
C326 C106 0.519 . S
C342 C132 0.772 . S
C364 C163 0.954 . S
C380 C7 0.488 . S
C402 C33 0.882 . S
C418 C59 0.894 . S
C440 C85 0.982 . S
C456 C137 0.778 . S
C478 C189 0.359 . S
C494 C111 0.832 . S
C516 C181 2.845 . S
C532 C25 2.848 . S
C554 C77 2.780 . S
C570 C51 2.906 . S
C592 C155 2.845 . S
C608 C103 2.848 . S
C630 C207 2.793 . S
C646 C129 2.878 . S
C668 C24 1.109 . S
C684 C99 1.017 . S
C706 C151 1.055 . S
C722 C50 1.319 . S
C744 C76 1.233 . S
C760 C125 1.064 . S
C782 C102 1.246 . S
C798 C73 1.390 1_545 S
C820 C128 1.306 . S
C836 C21 1.420 1_565 S
C858 C177 0.923 1_655 S
C874 C154 1.186 . S
C896 C180 1.283 . S
C912 C203 1.109 . S
C934 C206 1.410 . S
C950 C47 1.396 1_455 S
