# Generated by pormake.
# Topology alb, (6,12)-cn, num edge types: 1
# Building blocks:
#     Node 0, Type 0, BuildingBlock: N328, # of connection points: 6
#     Node 1, Type 0, BuildingBlock: N328, # of connection points: 6
#     Node 2, Type 1, BuildingBlock: N648, # of connection points: 12
#     Edge 3, Type (0, 1), BuildingBlock: E12, # of connection points: 2
#     Edge 4, Type (0, 1), BuildingBlock: E12, # of connection points: 2
#     Edge 5, Type (0, 1), BuildingBlock: E12, # of connection points: 2
#     Edge 6, Type (0, 1), BuildingBlock: E12, # of connection points: 2
#     Edge 7, Type (0, 1), BuildingBlock: E12, # of connection points: 2
#     Edge 8, Type (0, 1), BuildingBlock: E12, # of connection points: 2
#     Edge 9, Type (0, 1), BuildingBlock: E12, # of connection points: 2
#     Edge 10, Type (0, 1), BuildingBlock: E12, # of connection points: 2
#     Edge 11, Type (0, 1), BuildingBlock: E12, # of connection points: 2
#     Edge 12, Type (0, 1), BuildingBlock: E12, # of connection points: 2
#     Edge 13, Type (0, 1), BuildingBlock: E12, # of connection points: 2
#     Edge 14, Type (0, 1), BuildingBlock: E12, # of connection points: 2
# Relax obj value: 0.055
# Max RMSD: 0.211
# Mean RMSD: 0.161
data_alb+N328+N648+E12
_symmetry_space_group_name_H-M    P1
_symmetry_Int_Tables_number       1
_symmetry_cell_setting            triclinic
loop_
_symmetry_equiv_pos_as_xyz
'x, y, z'
_cell_length_a     29.846
_cell_length_b     33.596
_cell_length_c     29.052
_cell_angle_alpha  92.312
_cell_angle_beta   90.082
_cell_angle_gamma  124.884
loop_
_atom_site_label
_atom_site_type_symbol
_atom_site_fract_x
_atom_site_fract_y
_atom_site_fract_z
_atom_type_partial_charge
Zn0 Zn 0.35106 0.69908 0.05876 0.00000
N1 N 0.35714 0.64536 0.02197 0.00000
C2 C 0.39519 0.64041 0.03878 0.00000
C3 C 0.32135 0.61357 0.98920 0.00000
C4 C 0.39862 0.60204 0.02316 0.00000
C5 C 0.32212 0.57485 0.97269 0.00000
C6 C 0.35909 0.56763 0.99118 0.00000
N7 N 0.40756 0.75967 0.01813 0.00000
H8 H 0.29480 0.61781 0.97703 0.00000
H9 H 0.42696 0.59967 0.03414 0.00000
H10 H 0.35785 0.53949 0.98225 0.00000
C11 C 0.23679 0.62385 0.08368 0.00000
C12 C 0.29600 0.62274 0.13428 0.00000
C13 C 0.19141 0.58212 0.10225 0.00000
C14 C 0.25335 0.58150 0.15374 0.00000
C15 C 0.20119 0.55972 0.13633 0.00000
H16 H 0.44038 0.75915 0.13954 0.00000
H17 H 0.48993 0.66081 0.07720 0.00000
H18 H 0.55045 0.72650 0.12935 0.00000
C19 C 0.42099 0.80274 0.03513 0.00000
C20 C 0.43447 0.75725 0.98243 0.00000
C21 C 0.46346 0.84633 0.01664 0.00000
H22 H 0.42408 0.72628 0.97019 0.00000
C23 C 0.47690 0.79863 0.96298 0.00000
H24 H 0.47159 0.87680 0.02788 0.00000
C25 C 0.49324 0.84337 0.98142 0.00000
H26 H 0.52450 0.87208 0.97029 0.00000
C27 C 0.38933 0.80206 0.07479 0.00000
H28 H 0.33229 0.63711 0.14577 0.00000
C29 C 0.32804 0.75626 0.13085 0.00000
C30 C 0.39131 0.84333 0.09015 0.00000
H31 H 0.15527 0.56961 0.09182 0.00000
C32 C 0.32769 0.79521 0.14735 0.00000
C33 C 0.35730 0.83822 0.12567 0.00000
H34 H 0.17197 0.52970 0.14740 0.00000
N35 N 0.41896 0.70537 0.09343 0.00000
H36 H 0.30644 0.72613 0.14534 0.00000
C37 C 0.23114 0.64844 0.04508 0.00000
N38 N 0.28747 0.64303 0.09960 0.00000
C39 C 0.27540 0.70516 0.98951 0.00000
C40 C 0.18034 0.63847 0.03113 0.00000
H41 H 0.41504 0.87369 0.07668 0.00000
C42 C 0.22700 0.69746 0.97442 0.00000
C43 C 0.17971 0.66579 0.99661 0.00000
C44 C 0.43289 0.67701 0.07512 0.00000
H45 H 0.35473 0.86430 0.13478 0.00000
C46 C 0.45108 0.73952 0.12630 0.00000
C47 C 0.48120 0.68222 0.08925 0.00000
C48 C 0.49928 0.74685 0.14140 0.00000
N49 N 0.35812 0.75988 0.09493 0.00000
C50 C 0.51580 0.71978 0.12138 0.00000
N51 N 0.27707 0.68119 0.02453 0.00000
H52 H 0.30834 0.72802 0.97470 0.00000
H53 H 0.14753 0.61393 0.04487 0.00000
H54 H 0.14682 0.66243 0.98852 0.00000
Zn55 Zn 0.66120 0.31318 0.02743 0.00000
N56 N 0.65413 0.36529 0.99331 0.00000
C57 C 0.61657 0.37102 0.01024 0.00000
C58 C 0.68903 0.39559 0.96228 0.00000
C59 C 0.61274 0.40873 0.99654 0.00000
C60 C 0.68783 0.43361 0.94772 0.00000
C61 C 0.65140 0.44170 0.96644 0.00000
N62 N 0.60348 0.25065 0.98342 0.00000
H63 H 0.71522 0.39078 0.94999 0.00000
H64 H 0.58472 0.41161 0.00753 0.00000
H65 H 0.65241 0.46946 0.95894 0.00000
C66 C 0.77625 0.38964 0.05671 0.00000
C67 C 0.71849 0.39310 0.10718 0.00000
C68 C 0.82219 0.43228 0.07763 0.00000
C69 C 0.76173 0.43528 0.12895 0.00000
C70 C 0.81341 0.45628 0.11285 0.00000
H71 H 0.57412 0.25677 0.10487 0.00000
H72 H 0.52291 0.35238 0.04726 0.00000
H73 H 0.46381 0.28902 0.09585 0.00000
C74 C 0.59049 0.20831 0.99817 0.00000
C75 C 0.57557 0.25143 0.94768 0.00000
C76 C 0.54745 0.16381 0.97726 0.00000
H77 H 0.58564 0.28188 0.93705 0.00000
C78 C 0.53255 0.20910 0.92591 0.00000
H79 H 0.53961 0.13382 0.98692 0.00000
C80 C 0.51668 0.16516 0.94202 0.00000
H81 H 0.48507 0.13590 0.92928 0.00000
C82 C 0.62327 0.21081 0.03806 0.00000
H83 H 0.68251 0.37925 0.11780 0.00000
C84 C 0.68620 0.25925 0.09679 0.00000
C85 C 0.62169 0.17019 0.05132 0.00000
H86 H 0.85804 0.44432 0.06798 0.00000
C87 C 0.68698 0.22100 0.11132 0.00000
C88 C 0.65671 0.17694 0.08729 0.00000
H89 H 0.84297 0.48685 0.12560 0.00000
N90 N 0.59428 0.30849 0.06153 0.00000
H91 H 0.70825 0.29008 0.11292 0.00000
C92 C 0.78077 0.36324 0.01684 0.00000
N93 N 0.72600 0.37118 0.07146 0.00000
C94 C 0.73488 0.30388 0.95811 0.00000
C95 C 0.83118 0.37257 0.00359 0.00000
H96 H 0.59755 0.13917 0.03618 0.00000
C97 C 0.78285 0.31089 0.94360 0.00000
C98 C 0.83080 0.34362 0.96764 0.00000
C99 C 0.57987 0.33605 0.04459 0.00000
H100 H 0.65951 0.15124 0.09509 0.00000
C101 C 0.56307 0.27582 0.09256 0.00000
C102 C 0.53196 0.33150 0.05826 0.00000
C103 C 0.51529 0.26919 0.10710 0.00000
N104 N 0.65511 0.25397 0.06051 0.00000
C105 C 0.49823 0.29537 0.08837 0.00000
N106 N 0.73423 0.32951 0.99439 0.00000
H107 H 0.70149 0.28032 0.94198 0.00000
H108 H 0.86440 0.39778 0.01874 0.00000
H109 H 0.86346 0.34661 0.95985 0.00000
Eu110 Eu 0.01932 0.07126 0.53188 0.00000
Eu111 Eu 0.99197 0.94071 0.55402 0.00000
H112 H 0.90558 0.82729 0.71777 0.00000
H113 H 0.93653 0.87885 0.65912 0.00000
H114 H 0.91820 0.77144 0.57556 0.00000
H115 H 0.88481 0.72207 0.63613 0.00000
H116 H 0.88101 0.11566 0.43388 0.00000
H117 H 0.92205 0.09321 0.48238 0.00000
H118 H 0.97771 0.06009 0.37150 0.00000
H119 H 0.93967 0.08736 0.32626 0.00000
H120 H 0.10467 0.06892 0.72021 0.00000
H121 H 0.03685 0.04131 0.66752 0.00000
H122 H 0.14195 0.06500 0.56822 0.00000
H123 H 0.20913 0.09660 0.62376 0.00000
H124 H 0.07737 0.19019 0.73466 0.00000
H125 H 0.05158 0.12340 0.68967 0.00000
H126 H 0.07982 0.20020 0.57832 0.00000
H127 H 0.10940 0.26709 0.62567 0.00000
H128 H 0.75820 0.86967 0.64696 0.00000
H129 H 0.80909 0.87706 0.58671 0.00000
H130 H 0.94416 0.96405 0.66657 0.00000
H131 H 0.89014 0.95997 0.72331 0.00000
H132 H 0.17788 0.92117 0.47694 0.00000
H133 H 0.15213 0.95330 0.53199 0.00000
H134 H 0.05489 0.95529 0.43691 0.00000
H135 H 0.08793 0.92757 0.38319 0.00000
H136 H 0.10572 0.18468 0.36813 0.00000
H137 H 0.07476 0.13312 0.42679 0.00000
H138 H 0.09309 0.24052 0.51034 0.00000
H139 H 0.12649 0.28990 0.44978 0.00000
H140 H 0.13029 0.89631 0.65203 0.00000
H141 H 0.08925 0.91876 0.60352 0.00000
H142 H 0.03358 0.95188 0.71441 0.00000
H143 H 0.07163 0.92461 0.75964 0.00000
H144 H 0.90663 0.94305 0.36569 0.00000
H145 H 0.97445 0.97066 0.41839 0.00000
H146 H 0.86935 0.94697 0.51768 0.00000
H147 H 0.80217 0.91537 0.46215 0.00000
H148 H 0.93393 0.82178 0.35124 0.00000
H149 H 0.95972 0.88857 0.39624 0.00000
H150 H 0.93147 0.81177 0.50759 0.00000
H151 H 0.90190 0.74488 0.46023 0.00000
H152 H 0.25310 0.14231 0.43895 0.00000
H153 H 0.20221 0.13492 0.49919 0.00000
H154 H 0.06713 0.04792 0.41933 0.00000
H155 H 0.12115 0.05201 0.36260 0.00000
H156 H 0.83341 0.09080 0.60896 0.00000
H157 H 0.85916 0.05868 0.55392 0.00000
H158 H 0.95641 0.05668 0.64899 0.00000
H159 H 0.92337 0.08441 0.70271 0.00000
C160 C 0.90780 0.81620 0.68864 0.00000
C161 C 0.92744 0.84753 0.65385 0.00000
C162 C 0.93417 0.83220 0.60897 0.00000
C163 C 0.91631 0.78390 0.60409 0.00000
C164 C 0.89582 0.75404 0.64070 0.00000
C165 C 0.90173 0.10534 0.42163 0.00000
C166 C 0.92584 0.09136 0.45078 0.00000
C167 C 0.95571 0.07437 0.43399 0.00000
C168 C 0.95927 0.07226 0.38486 0.00000
C169 C 0.93591 0.08793 0.35804 0.00000
C170 C 0.11178 0.06783 0.68915 0.00000
C171 C 0.07119 0.05047 0.65811 0.00000
C172 C 0.07980 0.04577 0.61115 0.00000
C173 C 0.13353 0.06499 0.59902 0.00000
C174 C 0.17346 0.08362 0.63237 0.00000
C175 C 0.07918 0.19235 0.70283 0.00000
C176 C 0.06322 0.15227 0.67596 0.00000
C177 C 0.06393 0.15359 0.62783 0.00000
C178 C 0.08046 0.19782 0.61005 0.00000
C179 C 0.09763 0.23781 0.63855 0.00000
C180 C 0.79609 0.88993 0.65026 0.00000
C181 C 0.82649 0.89328 0.61462 0.00000
C182 C 0.88404 0.92065 0.61839 0.00000
C183 C 0.90648 0.94542 0.66150 0.00000
C184 C 0.87411 0.94254 0.69552 0.00000
C185 C 0.15214 0.92736 0.46941 0.00000
C186 C 0.13618 0.94585 0.50258 0.00000
C187 C 0.09590 0.95404 0.49327 0.00000
C188 C 0.07895 0.94773 0.44596 0.00000
C189 C 0.09833 0.93048 0.41404 0.00000
C190 C 0.10349 0.19577 0.39727 0.00000
C191 C 0.08385 0.16444 0.43206 0.00000
C192 C 0.07713 0.17977 0.47694 0.00000
C193 C 0.09498 0.22807 0.48182 0.00000
C194 C 0.11547 0.25793 0.44520 0.00000
C195 C 0.10957 0.90663 0.66428 0.00000
C196 C 0.08546 0.92061 0.63512 0.00000
C197 C 0.05559 0.93760 0.65192 0.00000
C198 C 0.05203 0.93971 0.70104 0.00000
C199 C 0.07539 0.92404 0.72787 0.00000
C200 C 0.89952 0.94414 0.39675 0.00000
C201 C 0.94011 0.96151 0.42779 0.00000
C202 C 0.93150 0.96620 0.47475 0.00000
C203 C 0.87776 0.94698 0.48689 0.00000
C204 C 0.83784 0.92835 0.45353 0.00000
C205 C 0.93212 0.81962 0.38308 0.00000
C206 C 0.94808 0.85970 0.40994 0.00000
C207 C 0.94736 0.85838 0.45808 0.00000
C208 C 0.93084 0.81415 0.47585 0.00000
C209 C 0.91367 0.77416 0.44736 0.00000
C210 C 0.21520 0.12204 0.43565 0.00000
C211 C 0.18481 0.11869 0.47129 0.00000
C212 C 0.12726 0.09132 0.46752 0.00000
C213 C 0.10482 0.06655 0.42441 0.00000
C214 C 0.13718 0.06943 0.39039 0.00000
C215 C 0.85916 0.08462 0.61650 0.00000
C216 C 0.87512 0.06612 0.58332 0.00000
C217 C 0.91539 0.05793 0.59263 0.00000
C218 C 0.93234 0.06424 0.63994 0.00000
C219 C 0.91296 0.08149 0.67187 0.00000
N220 N 0.09794 0.23590 0.68443 0.00000
N221 N 0.13176 0.91762 0.42567 0.00000
N222 N 0.81891 0.91500 0.69047 0.00000
N223 N 0.16345 0.08404 0.67707 0.00000
N224 N 0.90710 0.10451 0.37592 0.00000
N225 N 0.89108 0.76901 0.68228 0.00000
N226 N 0.91335 0.77607 0.40148 0.00000
N227 N 0.87954 0.09435 0.66024 0.00000
N228 N 0.19239 0.09697 0.39543 0.00000
N229 N 0.84784 0.92793 0.40883 0.00000
N230 N 0.10419 0.90746 0.70999 0.00000
N231 N 0.12022 0.24295 0.40363 0.00000
O232 O 0.04966 0.11583 0.60177 0.00000
O233 O 0.07654 0.96637 0.52555 0.00000
O234 O 0.91250 0.92264 0.58520 0.00000
O235 O 0.03874 0.02561 0.58028 0.00000
O236 O 0.98031 0.06275 0.46000 0.00000
O237 O 0.95408 0.86076 0.57586 0.00000
O238 O 0.96164 0.89614 0.48414 0.00000
O239 O 0.93475 0.04560 0.56036 0.00000
O240 O 0.09879 0.08933 0.50071 0.00000
O241 O 0.97256 0.98636 0.50562 0.00000
O242 O 0.03099 0.94922 0.62591 0.00000
O243 O 0.05722 0.15121 0.51004 0.00000
C244 C 0.76323 0.90189 0.81880 0.00000
C245 C 0.70357 0.87171 0.80042 0.00000
C246 C 0.69087 0.85898 0.74841 0.00000
C247 C 0.73778 0.87642 0.71476 0.00000
C248 C 0.51520 0.80150 0.93435 0.00000
C249 C 0.81014 0.91932 0.78514 0.00000
C250 C 0.65660 0.85423 0.83401 0.00000
C251 C 0.60954 0.83670 0.86752 0.00000
C252 C 0.56240 0.81911 0.90096 0.00000
C253 C 0.79742 0.90659 0.73312 0.00000
H254 H 0.77264 0.91131 0.85731 0.00000
H255 H 0.64672 0.83665 0.73479 0.00000
H256 H 0.72835 0.86698 0.67625 0.00000
H257 H 0.85430 0.94167 0.79874 0.00000
C258 C 0.87915 0.67140 0.77642 0.00000
C259 C 0.81656 0.63537 0.77726 0.00000
C260 C 0.77982 0.64367 0.74795 0.00000
C261 C 0.80564 0.68796 0.71779 0.00000
C262 C 0.71231 0.45789 0.89758 0.00000
C263 C 0.90497 0.71569 0.74625 0.00000
C264 C 0.79066 0.59106 0.80739 0.00000
C265 C 0.76463 0.54670 0.83748 0.00000
C266 C 0.73851 0.50231 0.86754 0.00000
C267 C 0.86822 0.72398 0.71695 0.00000
H268 H 0.90636 0.66526 0.79811 0.00000
H269 H 0.73348 0.61702 0.74857 0.00000
H270 H 0.77842 0.69407 0.69609 0.00000
H271 H 0.95130 0.74236 0.74564 0.00000
C272 C 0.82564 0.16208 0.72448 0.00000
C273 C 0.84545 0.17274 0.77532 0.00000
C274 C 0.88242 0.15791 0.79278 0.00000
C275 C 0.89962 0.13245 0.75943 0.00000
C276 C 0.77725 0.27463 0.90938 0.00000
C277 C 0.84284 0.13661 0.69113 0.00000
C278 C 0.82830 0.19821 0.80872 0.00000
C279 C 0.81123 0.22368 0.84221 0.00000
C280 C 0.79422 0.24916 0.87577 0.00000
C281 C 0.87983 0.12179 0.70860 0.00000
H282 H 0.79827 0.17305 0.71154 0.00000
H283 H 0.89708 0.16579 0.83041 0.00000
H284 H 0.92701 0.12149 0.77237 0.00000
H285 H 0.82818 0.12871 0.65350 0.00000
C286 C 0.89426 0.18431 0.28674 0.00000
C287 C 0.83155 0.15495 0.28200 0.00000
C288 C 0.79567 0.11131 0.31209 0.00000
C289 C 0.82247 0.09702 0.34692 0.00000
C290 C 0.72339 0.21148 0.14293 0.00000
C291 C 0.92106 0.17001 0.32158 0.00000
C292 C 0.80467 0.16920 0.24719 0.00000
C293 C 0.77767 0.18335 0.21241 0.00000
C294 C 0.75057 0.19745 0.17766 0.00000
C295 C 0.88517 0.12636 0.35167 0.00000
H296 H 0.92083 0.21662 0.26446 0.00000
H297 H 0.74925 0.08957 0.30858 0.00000
H298 H 0.79589 0.06471 0.36920 0.00000
H299 H 0.96747 0.19173 0.32508 0.00000
C300 C 0.75561 0.85022 0.32385 0.00000
C301 C 0.71521 0.86465 0.32036 0.00000
C302 C 0.72354 0.90663 0.35163 0.00000
C303 C 0.77226 0.93419 0.38638 0.00000
C304 C 0.52004 0.75497 0.18159 0.00000
C305 C 0.80434 0.87779 0.35860 0.00000
C306 C 0.66647 0.83714 0.28563 0.00000
C307 C 0.61769 0.80969 0.25093 0.00000
C308 C 0.56888 0.78231 0.21625 0.00000
C309 C 0.81266 0.91977 0.38987 0.00000
H310 H 0.74945 0.81915 0.30070 0.00000
H311 H 0.69363 0.91731 0.34907 0.00000
H312 H 0.77841 0.96527 0.40951 0.00000
H313 H 0.83424 0.86711 0.36118 0.00000
C314 C 0.24387 0.12422 0.26872 0.00000
C315 C 0.30356 0.15785 0.28675 0.00000
C316 C 0.31652 0.16596 0.33898 0.00000
C317 C 0.26983 0.14045 0.37319 0.00000
C318 C 0.49104 0.26026 0.15054 0.00000
C319 C 0.19718 0.09871 0.30295 0.00000
C320 C 0.35031 0.18339 0.25259 0.00000
C321 C 0.39715 0.20898 0.21851 0.00000
C322 C 0.44406 0.23460 0.18450 0.00000
C323 C 0.21016 0.10683 0.35518 0.00000
H324 H 0.23426 0.11821 0.23006 0.00000
H325 H 0.36070 0.19087 0.35233 0.00000
H326 H 0.27946 0.14646 0.41186 0.00000
H327 H 0.15300 0.07383 0.28961 0.00000
C328 C 0.11853 0.31666 0.29471 0.00000
C329 C 0.16782 0.36856 0.30843 0.00000
C330 C 0.20122 0.37830 0.35306 0.00000
C331 C 0.18536 0.33617 0.38396 0.00000
C332 C 0.23207 0.53768 0.18534 0.00000
C333 C 0.10267 0.27453 0.32562 0.00000
C334 C 0.18374 0.41074 0.27757 0.00000
C335 C 0.19977 0.45300 0.24678 0.00000
C336 C 0.21589 0.49531 0.21604 0.00000
C337 C 0.13609 0.28428 0.37025 0.00000
H338 H 0.09379 0.30944 0.26167 0.00000
H339 H 0.23770 0.41672 0.36324 0.00000
H340 H 0.21012 0.34341 0.41700 0.00000
H341 H 0.06618 0.23612 0.31546 0.00000
C342 C 0.15136 0.88394 0.29541 0.00000
C343 C 0.18675 0.86746 0.31296 0.00000
C344 C 0.19528 0.86666 0.36510 0.00000
C345 C 0.16844 0.88232 0.39971 0.00000
C346 C 0.29450 0.80460 0.17518 0.00000
C347 C 0.12452 0.89960 0.33002 0.00000
C348 C 0.21362 0.85178 0.27840 0.00000
C349 C 0.24054 0.83608 0.24394 0.00000
C350 C 0.26750 0.82034 0.20954 0.00000
C351 C 0.13306 0.89879 0.38217 0.00000
H352 H 0.14504 0.88453 0.25680 0.00000
H353 H 0.22148 0.85448 0.37811 0.00000
H354 H 0.17475 0.88170 0.43832 0.00000
H355 H 0.09834 0.91180 0.31703 0.00000
C356 C 0.90864 0.68872 0.30858 0.00000
C357 C 0.84796 0.64957 0.29637 0.00000
C358 C 0.80341 0.65341 0.31800 0.00000
C359 C 0.81951 0.69638 0.35182 0.00000
C360 C 0.78253 0.47736 0.16113 0.00000
C361 C 0.92474 0.73169 0.34241 0.00000
C362 C 0.83177 0.60657 0.26255 0.00000
C363 C 0.81545 0.56353 0.22874 0.00000
C364 C 0.79903 0.52046 0.19493 0.00000
C365 C 0.88017 0.73552 0.36403 0.00000
H366 H 0.94163 0.68589 0.29257 0.00000
H367 H 0.75848 0.62442 0.30898 0.00000
H368 H 0.78651 0.69920 0.36781 0.00000
H369 H 0.96965 0.76067 0.35145 0.00000
C370 C 0.10721 0.82750 0.81460 0.00000
C371 C 0.15895 0.82899 0.80548 0.00000
C372 C 0.19318 0.85415 0.76314 0.00000
C373 C 0.17569 0.87781 0.72992 0.00000
C374 C 0.22976 0.73461 0.93789 0.00000
C375 C 0.08972 0.85117 0.78138 0.00000
C376 C 0.17651 0.80535 0.83866 0.00000
C377 C 0.19417 0.78174 0.87178 0.00000
C378 C 0.21193 0.75817 0.90486 0.00000
C379 C 0.12396 0.87633 0.73903 0.00000
H380 H 0.08186 0.80888 0.84595 0.00000
H381 H 0.23148 0.85525 0.75636 0.00000
H382 H 0.20106 0.89644 0.69858 0.00000
H383 H 0.05142 0.85006 0.78812 0.00000
C384 C 0.24463 0.08419 0.77690 0.00000
C385 C 0.30109 0.12984 0.76624 0.00000
C386 C 0.30865 0.15647 0.72193 0.00000
C387 C 0.25977 0.13749 0.68830 0.00000
C388 C 0.49723 0.20651 0.90028 0.00000
C389 C 0.19574 0.06521 0.74326 0.00000
C390 C 0.35002 0.14889 0.79983 0.00000
C391 C 0.39903 0.16803 0.83336 0.00000
C392 C 0.44810 0.18724 0.86684 0.00000
C393 C 0.20332 0.09185 0.69896 0.00000
H394 H 0.23902 0.06447 0.80970 0.00000
H395 H 0.35044 0.19026 0.71402 0.00000
H396 H 0.26539 0.15723 0.65551 0.00000
H397 H 0.15395 0.03142 0.75116 0.00000
C398 C 0.14117 0.32131 0.80507 0.00000
C399 C 0.19098 0.37039 0.79020 0.00000
C400 C 0.21417 0.37430 0.74200 0.00000
C401 C 0.18757 0.32915 0.70866 0.00000
C402 C 0.29808 0.55153 0.92295 0.00000
C403 C 0.11456 0.27615 0.77173 0.00000
C404 C 0.21764 0.41559 0.82349 0.00000
C405 C 0.24439 0.46085 0.85670 0.00000
C406 C 0.27121 0.50617 0.88985 0.00000
C407 C 0.13776 0.28007 0.72352 0.00000
H408 H 0.12399 0.31841 0.84076 0.00000
H409 H 0.25106 0.41063 0.73099 0.00000
H410 H 0.20474 0.33207 0.67298 0.00000
H411 H 0.07769 0.23982 0.78274 0.00000
loop_
_geom_bond_atom_site_label_1
_geom_bond_atom_site_label_2
_geom_bond_distance
_geom_bond_site_symmetry_2
_ccdc_geom_bond_type
Zn0 N1 2.157 . S
Zn0 N7 2.157 . S
Zn0 N35 2.157 . S
Zn0 N38 2.157 . S
Zn0 N49 2.157 . S
Zn0 N51 2.157 . S
N1 C2 1.333 . A
N1 C3 1.341 1_554 A
C2 C4 1.408 . A
C2 C44 1.484 . S
C3 C5 1.381 . A
C3 H8 0.952 . S
C4 C6 1.394 1_554 A
C4 H9 0.950 . S
C5 C6 1.371 . A
C6 H10 0.950 . S
N7 C19 1.333 . A
N7 C20 1.341 1_554 A
C11 C13 1.408 . A
C11 C37 1.484 . S
C11 N38 1.333 . A
C12 C14 1.381 . A
C12 H28 0.952 . S
C12 N38 1.341 . A
C13 C15 1.394 . A
C13 H31 0.950 . S
C14 C15 1.371 . A
C15 H34 0.950 . S
H16 C46 0.952 . S
H17 C47 0.950 . S
H18 C50 0.950 . S
C19 C21 1.408 . A
C19 C27 1.484 . S
C20 H22 0.952 . S
C20 C23 1.381 . A
C21 H24 0.950 . S
C21 C25 1.394 1_554 A
C23 C25 1.371 . A
C25 H26 0.950 . S
C27 C30 1.408 . A
C27 N49 1.333 . A
C29 C32 1.381 . A
C29 H36 0.952 . S
C29 N49 1.341 . A
C30 C33 1.394 . A
C30 H41 0.950 . S
C32 C33 1.371 . A
C33 H45 0.950 . S
N35 C44 1.333 . A
N35 C46 1.341 . A
C37 C40 1.408 . A
C37 N51 1.333 . A
C39 C42 1.381 . A
C39 N51 1.341 1_556 A
C39 H52 0.952 . S
C40 C43 1.394 1_554 A
C40 H53 0.950 . S
C42 C43 1.371 . A
C43 H54 0.950 . S
C44 C47 1.408 . A
C46 C48 1.381 . A
C47 C50 1.394 . A
C48 C50 1.371 . A
Zn55 N56 2.157 1_554 S
Zn55 N62 2.157 1_554 S
Zn55 N90 2.157 . S
Zn55 N93 2.157 . S
Zn55 N104 2.157 . S
Zn55 N106 2.157 1_554 S
N56 C57 1.333 1_556 A
N56 C58 1.341 . A
C57 C59 1.408 1_554 A
C57 C99 1.484 . S
C58 C60 1.381 . A
C58 H63 0.952 . S
C59 C61 1.394 . A
C59 H64 0.950 1_556 S
C60 C61 1.371 . A
C61 H65 0.950 . S
N62 C74 1.333 . A
N62 C75 1.341 . A
C66 C68 1.408 . A
C66 C92 1.484 . S
C66 N93 1.333 . A
C67 C69 1.381 . A
C67 H83 0.952 . S
C67 N93 1.341 . A
C68 C70 1.394 . A
C68 H86 0.950 . S
C69 C70 1.371 . A
C70 H89 0.950 . S
H71 C101 0.952 . S
H72 C102 0.950 . S
H73 C105 0.950 . S
C74 C76 1.408 . A
C74 C82 1.484 1_556 S
C75 H77 0.952 . S
C75 C78 1.381 . A
C76 H79 0.950 . S
C76 C80 1.394 . A
C78 C80 1.371 . A
C80 H81 0.950 . S
C82 C85 1.408 . A
C82 N104 1.333 . A
C84 C87 1.381 . A
C84 H91 0.952 . S
C84 N104 1.341 . A
C85 C88 1.394 . A
C85 H96 0.950 . S
C87 C88 1.371 . A
C88 H100 0.950 . S
N90 C99 1.333 . A
N90 C101 1.341 . A
C92 C95 1.408 . A
C92 N106 1.333 1_554 A
C94 C97 1.381 . A
C94 N106 1.341 . A
C94 H107 0.952 . S
C95 C98 1.394 1_554 A
C95 H108 0.950 . S
C97 C98 1.371 . A
C98 H109 0.950 . S
C99 C102 1.408 . A
C101 C103 1.381 . A
C102 C105 1.394 . A
C103 C105 1.371 . A
Eu110 Eu111 4.056 1_445 S
Eu110 O232 2.320 . S
Eu110 O235 2.419 . S
Eu110 O236 2.316 1_455 S
Eu110 O239 2.318 1_455 S
Eu110 O240 2.284 . S
Eu110 O241 2.436 1_445 S
Eu110 O243 2.358 . S
Eu111 O233 2.318 1_655 S
Eu111 O234 2.284 . S
Eu111 O235 2.436 1_665 S
Eu111 O237 2.358 . S
Eu111 O238 2.320 . S
Eu111 O241 2.419 . S
Eu111 O242 2.316 1_655 S
H112 C160 0.929 . S
H113 C161 0.930 . S
H114 C163 0.930 . S
H115 C164 0.929 . S
H116 C165 0.930 . S
H117 C166 0.929 . S
H118 C168 0.931 . S
H119 C169 0.931 . S
H120 C170 0.931 . S
H121 C171 0.931 . S
H122 C173 0.930 . S
H123 C174 0.930 . S
H124 C175 0.930 . S
H125 C176 0.931 . S
H126 C178 0.930 . S
H127 C179 0.930 . S
H128 C180 0.930 . S
H129 C181 0.929 . S
H130 C183 0.930 . S
H131 C184 0.929 . S
H132 C185 0.931 . S
H133 C186 0.930 . S
H134 C188 0.929 . S
H135 C189 0.931 . S
H136 C190 0.929 . S
H137 C191 0.930 . S
H138 C193 0.930 . S
H139 C194 0.929 . S
H140 C195 0.930 . S
H141 C196 0.929 . S
H142 C198 0.931 . S
H143 C199 0.931 . S
H144 C200 0.931 . S
H145 C201 0.931 . S
H146 C203 0.930 . S
H147 C204 0.930 . S
H148 C205 0.930 . S
H149 C206 0.931 . S
H150 C208 0.930 . S
H151 C209 0.931 . S
H152 C210 0.930 . S
H153 C211 0.929 . S
H154 C213 0.930 . S
H155 C214 0.929 . S
H156 C215 0.931 . S
H157 C216 0.930 . S
H158 C218 0.929 . S
H159 C219 0.931 . S
C160 C161 1.362 . A
C160 N225 1.367 . A
C161 C162 1.439 . A
C162 C163 1.389 . A
C162 O237 1.274 . S
C163 C164 1.378 . A
C164 H115 0.929 . S
C164 N225 1.329 . A
C165 C166 1.369 . A
C165 N224 1.339 . A
C166 C167 1.385 . A
C167 C168 1.433 . A
C167 O236 1.270 . S
C168 C169 1.350 . A
C169 N224 1.358 . A
C170 C171 1.329 . A
C170 N223 1.362 . A
C171 C172 1.408 . A
C172 C173 1.396 . A
C172 O235 1.328 . S
C173 C174 1.358 . A
C174 N223 1.334 . A
C175 C176 1.353 . A
C175 N220 1.366 . A
C176 C177 1.401 . A
C177 C178 1.394 . A
C177 O232 1.291 . S
C178 C179 1.369 . A
C179 N220 1.337 . A
C180 C181 1.343 . A
C180 N222 1.342 . A
C181 C182 1.411 . A
C182 C183 1.409 . A
C182 O234 1.264 . S
C183 C184 1.350 . A
C184 N222 1.355 . A
C185 C186 1.354 . A
C185 N221 1.352 . A
C186 C187 1.406 . A
C187 C188 1.429 . A
C187 O233 1.276 . S
C188 C189 1.368 . A
C189 N221 1.341 . A
C190 C191 1.362 . A
C190 N231 1.366 . A
C191 C192 1.439 . A
C192 C193 1.389 . A
C192 O243 1.274 . S
C193 C194 1.378 . A
C194 H139 0.929 . S
C194 N231 1.329 . A
C195 C196 1.369 . A
C195 N230 1.339 . A
C196 C197 1.385 . A
C197 C198 1.433 . A
C197 O242 1.270 . S
C198 C199 1.350 . A
C199 N230 1.358 . A
C200 C201 1.329 . A
C200 N229 1.362 . A
C201 C202 1.408 . A
C202 C203 1.396 . A
C202 O241 1.328 . S
C203 C204 1.358 . A
C204 N229 1.334 . A
C205 C206 1.353 . A
C205 N226 1.366 . A
C206 C207 1.401 . A
C207 C208 1.394 . A
C207 O238 1.291 . S
C208 C209 1.369 . A
C209 N226 1.337 . A
C210 C211 1.343 . A
C210 N228 1.342 . A
C211 C212 1.411 . A
C212 C213 1.409 . A
C212 O240 1.264 . S
C213 C214 1.350 . A
C214 N228 1.355 . A
C215 C216 1.354 . A
C215 N227 1.352 . A
C216 C217 1.406 . A
C217 C218 1.429 . A
C217 O239 1.276 . S
C218 C219 1.368 . A
C219 N227 1.341 . A
C244 C245 1.540 . A
C244 C249 1.540 . A
C244 H254 1.140 . S
C245 C246 1.540 . A
C245 C250 1.540 . S
C246 C247 1.540 . A
C246 H255 1.140 . S
C247 C253 1.540 . A
C247 H256 1.140 . S
C253 C249 1.540 . A
C249 H257 1.140 . S
C250 C251 1.540 . T
C251 C252 1.540 . S
C252 C248 1.540 . T
C258 C259 1.540 . A
C258 C263 1.540 . A
C258 H268 1.140 . S
C259 C260 1.540 . A
C259 C264 1.540 . S
C260 C261 1.540 . A
C260 H269 1.140 . S
C261 C267 1.540 . A
C261 H270 1.140 . S
C267 C263 1.540 . A
C263 H271 1.140 . S
C264 C265 1.540 . T
C265 C266 1.540 . S
C266 C262 1.540 . T
C272 C273 1.540 . A
C272 C277 1.540 . A
C272 H282 1.140 . S
C273 C274 1.540 . A
C273 C278 1.540 . S
C274 C275 1.540 . A
C274 H283 1.140 . S
C275 C281 1.540 . A
C275 H284 1.140 . S
C281 C277 1.540 . A
C277 H285 1.140 . S
C278 C279 1.540 . T
C279 C280 1.540 . S
C280 C276 1.540 . T
C286 C287 1.540 . A
C286 C291 1.540 . A
C286 H296 1.140 . S
C287 C288 1.540 . A
C287 C292 1.540 . S
C288 C289 1.540 . A
C288 H297 1.140 . S
C289 C295 1.540 . A
C289 H298 1.140 . S
C295 C291 1.540 . A
C291 H299 1.140 . S
C292 C293 1.540 . T
C293 C294 1.540 . S
C294 C290 1.540 . T
C300 C301 1.540 . A
C300 C305 1.540 . A
C300 H310 1.140 . S
C301 C302 1.540 . A
C301 C306 1.540 . S
C302 C303 1.540 . A
C302 H311 1.140 . S
C303 C309 1.540 . A
C303 H312 1.140 . S
C309 C305 1.540 . A
C305 H313 1.140 . S
C306 C307 1.540 . T
C307 C308 1.540 . S
C308 C304 1.540 . T
C314 C315 1.540 . A
C314 C319 1.540 . A
C314 H324 1.140 . S
C315 C316 1.540 . A
C315 C320 1.540 . S
C316 C317 1.540 . A
C316 H325 1.140 . S
C317 C323 1.540 . A
C317 H326 1.140 . S
C323 C319 1.540 . A
C319 H327 1.140 . S
C320 C321 1.540 . T
C321 C322 1.540 . S
C322 C318 1.540 . T
C328 C329 1.540 . A
C328 C333 1.540 . A
C328 H338 1.140 . S
C329 C330 1.540 . A
C329 C334 1.540 . S
C330 C331 1.540 . A
C330 H339 1.140 . S
C331 C337 1.540 . A
C331 H340 1.140 . S
C337 C333 1.540 . A
C333 H341 1.140 . S
C334 C335 1.540 . T
C335 C336 1.540 . S
C336 C332 1.540 . T
C342 C343 1.540 . A
C342 C347 1.540 . A
C342 H352 1.140 . S
C343 C344 1.540 . A
C343 C348 1.540 . S
C344 C345 1.540 . A
C344 H353 1.140 . S
C345 C351 1.540 . A
C345 H354 1.140 . S
C351 C347 1.540 . A
C347 H355 1.140 . S
C348 C349 1.540 . T
C349 C350 1.540 . S
C350 C346 1.540 . T
C356 C357 1.540 . A
C356 C361 1.540 . A
C356 H366 1.140 . S
C357 C358 1.540 . A
C357 C362 1.540 . S
C358 C359 1.540 . A
C358 H367 1.140 . S
C359 C365 1.540 . A
C359 H368 1.140 . S
C365 C361 1.540 . A
C361 H369 1.140 . S
C362 C363 1.540 . T
C363 C364 1.540 . S
C364 C360 1.540 . T
C370 C371 1.540 . A
C370 C375 1.540 . A
C370 H380 1.140 . S
C371 C372 1.540 . A
C371 C376 1.540 . S
C372 C373 1.540 . A
C372 H381 1.140 . S
C373 C379 1.540 . A
C373 H382 1.140 . S
C379 C375 1.540 . A
C375 H383 1.140 . S
C376 C377 1.540 . T
C377 C378 1.540 . S
C378 C374 1.540 . T
C384 C385 1.540 . A
C384 C389 1.540 . A
C384 H394 1.140 . S
C385 C386 1.540 . A
C385 C390 1.540 . S
C386 C387 1.540 . A
C386 H395 1.140 . S
C387 C393 1.540 . A
C387 H396 1.140 . S
C393 C389 1.540 . A
C389 H397 1.140 . S
C390 C391 1.540 . T
C391 C392 1.540 . S
C392 C388 1.540 . T
C398 C399 1.540 . A
C398 C403 1.540 . A
C398 H408 1.140 . S
C399 C400 1.540 . A
C399 C404 1.540 . S
C400 C401 1.540 . A
C400 H409 1.140 . S
C401 C407 1.540 . A
C401 H410 1.140 . S
C407 C403 1.540 . A
C403 H411 1.140 . S
C404 C405 1.540 . T
C405 C406 1.540 . S
C406 C402 1.540 . T
C248 C23 1.375 . S
C253 N222 1.360 . S
C267 N225 1.647 . S
C262 C60 1.655 . S
C276 C97 1.473 . S
C281 N227 1.646 . S
C295 N224 1.433 . S
C290 C87 1.595 . S
C304 C48 1.265 . S
C309 N229 1.067 . S
C318 C103 1.411 . S
C323 N228 1.261 . S
C332 C14 1.567 . S
C337 N231 1.565 . S
C346 C32 1.440 . S
C351 N221 1.401 . S
C360 C69 1.465 . S
C365 N226 1.534 . S
C379 N230 1.712 . S
C374 C42 1.637 . S
C388 C78 1.249 . S
C393 N223 1.231 . S
C402 C5 1.575 . S
C407 N220 1.658 . S
