# Generated by pormake.
# Topology fnh, (5)-cn, num edge types: 1
# Building blocks:
#     Node 0, Type 0, BuildingBlock: N172, # of connection points: 5
#     Node 1, Type 0, BuildingBlock: N172, # of connection points: 5
#     Node 2, Type 0, BuildingBlock: N172, # of connection points: 5
#     Node 3, Type 0, BuildingBlock: N172, # of connection points: 5
#     Node 4, Type 0, BuildingBlock: N172, # of connection points: 5
#     Node 5, Type 0, BuildingBlock: N172, # of connection points: 5
#     Node 6, Type 0, BuildingBlock: N172, # of connection points: 5
#     Node 7, Type 0, BuildingBlock: N172, # of connection points: 5
#     Node 8, Type 0, BuildingBlock: N172, # of connection points: 5
#     Node 9, Type 0, BuildingBlock: N172, # of connection points: 5
#     Node 10, Type 0, BuildingBlock: N172, # of connection points: 5
#     Node 11, Type 0, BuildingBlock: N172, # of connection points: 5
#     Node 12, Type 0, BuildingBlock: N172, # of connection points: 5
#     Node 13, Type 0, BuildingBlock: N172, # of connection points: 5
#     Node 14, Type 0, BuildingBlock: N172, # of connection points: 5
#     Node 15, Type 0, BuildingBlock: N172, # of connection points: 5
#     Node 16, Type 0, BuildingBlock: N172, # of connection points: 5
#     Node 17, Type 0, BuildingBlock: N172, # of connection points: 5
#     Edge 18, Type (0, 0), BuildingBlock: E63, # of connection points: 2
#     Edge 19, Type (0, 0), BuildingBlock: E63, # of connection points: 2
#     Edge 20, Type (0, 0), BuildingBlock: E63, # of connection points: 2
#     Edge 21, Type (0, 0), BuildingBlock: E63, # of connection points: 2
#     Edge 22, Type (0, 0), BuildingBlock: E63, # of connection points: 2
#     Edge 23, Type (0, 0), BuildingBlock: E63, # of connection points: 2
#     Edge 24, Type (0, 0), BuildingBlock: E63, # of connection points: 2
#     Edge 25, Type (0, 0), BuildingBlock: E63, # of connection points: 2
#     Edge 26, Type (0, 0), BuildingBlock: E63, # of connection points: 2
#     Edge 27, Type (0, 0), BuildingBlock: E63, # of connection points: 2
#     Edge 28, Type (0, 0), BuildingBlock: E63, # of connection points: 2
#     Edge 29, Type (0, 0), BuildingBlock: E63, # of connection points: 2
#     Edge 30, Type (0, 0), BuildingBlock: E63, # of connection points: 2
#     Edge 31, Type (0, 0), BuildingBlock: E63, # of connection points: 2
#     Edge 32, Type (0, 0), BuildingBlock: E63, # of connection points: 2
#     Edge 33, Type (0, 0), BuildingBlock: E63, # of connection points: 2
#     Edge 34, Type (0, 0), BuildingBlock: E63, # of connection points: 2
#     Edge 35, Type (0, 0), BuildingBlock: E63, # of connection points: 2
#     Edge 36, Type (0, 0), BuildingBlock: E63, # of connection points: 2
#     Edge 37, Type (0, 0), BuildingBlock: E63, # of connection points: 2
#     Edge 38, Type (0, 0), BuildingBlock: E63, # of connection points: 2
#     Edge 39, Type (0, 0), BuildingBlock: E63, # of connection points: 2
#     Edge 40, Type (0, 0), BuildingBlock: E63, # of connection points: 2
#     Edge 41, Type (0, 0), BuildingBlock: E63, # of connection points: 2
#     Edge 42, Type (0, 0), BuildingBlock: E63, # of connection points: 2
#     Edge 43, Type (0, 0), BuildingBlock: E63, # of connection points: 2
#     Edge 44, Type (0, 0), BuildingBlock: E63, # of connection points: 2
#     Edge 45, Type (0, 0), BuildingBlock: E63, # of connection points: 2
#     Edge 46, Type (0, 0), BuildingBlock: E63, # of connection points: 2
#     Edge 47, Type (0, 0), BuildingBlock: E63, # of connection points: 2
#     Edge 48, Type (0, 0), BuildingBlock: E63, # of connection points: 2
#     Edge 49, Type (0, 0), BuildingBlock: E63, # of connection points: 2
#     Edge 50, Type (0, 0), BuildingBlock: E63, # of connection points: 2
#     Edge 51, Type (0, 0), BuildingBlock: E63, # of connection points: 2
#     Edge 52, Type (0, 0), BuildingBlock: E63, # of connection points: 2
#     Edge 53, Type (0, 0), BuildingBlock: E63, # of connection points: 2
#     Edge 54, Type (0, 0), BuildingBlock: E63, # of connection points: 2
#     Edge 55, Type (0, 0), BuildingBlock: E63, # of connection points: 2
#     Edge 56, Type (0, 0), BuildingBlock: E63, # of connection points: 2
#     Edge 57, Type (0, 0), BuildingBlock: E63, # of connection points: 2
#     Edge 58, Type (0, 0), BuildingBlock: E63, # of connection points: 2
#     Edge 59, Type (0, 0), BuildingBlock: E63, # of connection points: 2
#     Edge 60, Type (0, 0), BuildingBlock: E63, # of connection points: 2
#     Edge 61, Type (0, 0), BuildingBlock: E63, # of connection points: 2
#     Edge 62, Type (0, 0), BuildingBlock: E63, # of connection points: 2
# Relax obj value: 0.286
# Max RMSD: 0.246
# Mean RMSD: 0.246
data_fnh+N172+E63
_symmetry_space_group_name_H-M    P1
_symmetry_Int_Tables_number       1
_symmetry_cell_setting            triclinic
loop_
_symmetry_equiv_pos_as_xyz
'x, y, z'
_cell_length_a     43.428
_cell_length_b     43.428
_cell_length_c     16.297
_cell_angle_alpha  89.994
_cell_angle_beta   90.006
_cell_angle_gamma  119.982
loop_
_atom_site_label
_atom_site_type_symbol
_atom_site_fract_x
_atom_site_fract_y
_atom_site_fract_z
_atom_type_partial_charge
O0 O 0.37561 0.82963 0.85805 0.00000
O1 O 0.41511 0.88238 0.80176 0.00000
Zn2 Zn 0.46316 0.89108 0.82457 0.00000
Zn3 Zn 0.40508 0.80798 0.90256 0.00000
O4 O 0.44840 0.85890 0.92513 0.00000
Zn5 Zn 0.43668 0.87785 0.02131 0.00000
C6 C 0.45712 0.94407 0.94898 0.00000
O7 O 0.46282 0.87378 0.11532 0.00000
C8 C 0.36966 0.82207 0.04900 0.00000
O9 O 0.44556 0.92651 0.01604 0.00000
O10 O 0.47224 0.93795 0.89258 0.00000
O11 O 0.49832 0.86266 0.03965 0.00000
C12 C 0.44233 0.82139 0.73882 0.00000
O13 O 0.42191 0.80184 0.79114 0.00000
O14 O 0.46156 0.85411 0.74202 0.00000
C15 C 0.38313 0.85766 0.81885 0.00000
C16 C 0.48516 0.86414 0.10393 0.00000
H17 H 0.46887 0.85588 0.94025 0.00000
O18 O 0.38259 0.80433 0.02132 0.00000
O19 O 0.38668 0.85571 0.05443 0.00000
O20 O 0.12158 0.95957 0.19145 0.00000
O21 O 0.13483 0.92006 0.13519 0.00000
Zn22 Zn 0.09551 0.87202 0.15800 0.00000
Zn23 Zn 0.07048 0.93012 0.23596 0.00000
O24 O 0.07809 0.88679 0.25855 0.00000
Zn25 Zn 0.10876 0.89851 0.35473 0.00000
C26 C 0.15453 0.87805 0.28243 0.00000
O27 O 0.07856 0.87237 0.44875 0.00000
C28 C 0.11998 0.96553 0.38240 0.00000
O29 O 0.14852 0.88961 0.34948 0.00000
O30 O 0.13330 0.86293 0.22603 0.00000
O31 O 0.03195 0.83688 0.37308 0.00000
C32 C 0.04664 0.89286 0.07223 0.00000
O33 O 0.04751 0.91329 0.12454 0.00000
O34 O 0.06013 0.87362 0.07544 0.00000
C35 C 0.14209 0.95204 0.15226 0.00000
C36 C 0.04658 0.85004 0.43735 0.00000
H37 H 0.05462 0.86633 0.27368 0.00000
O38 O 0.08932 0.95261 0.35472 0.00000
O39 O 0.13660 0.94851 0.38785 0.00000
O40 O 0.04236 0.16303 0.19134 0.00000
O41 O 0.08185 0.21579 0.13507 0.00000
Zn42 Zn 0.12990 0.22450 0.15789 0.00000
Zn43 Zn 0.07184 0.14139 0.23587 0.00000
O44 O 0.11515 0.19232 0.25845 0.00000
Zn45 Zn 0.10341 0.21126 0.35462 0.00000
C46 C 0.12384 0.27748 0.28230 0.00000
O47 O 0.12956 0.20720 0.44865 0.00000
C48 C 0.03640 0.15547 0.38229 0.00000
O49 O 0.11229 0.25991 0.34935 0.00000
O50 O 0.13897 0.27137 0.22590 0.00000
O51 O 0.16506 0.19609 0.37299 0.00000
C52 C 0.10910 0.15482 0.07214 0.00000
O53 O 0.08868 0.13526 0.12445 0.00000
O54 O 0.12832 0.18754 0.07535 0.00000
C55 C 0.04988 0.19107 0.15214 0.00000
C56 C 0.15190 0.19756 0.43726 0.00000
H57 H 0.13562 0.18931 0.27358 0.00000
O58 O 0.04934 0.13774 0.35462 0.00000
O59 O 0.05341 0.18911 0.38773 0.00000
O60 O 0.70891 0.49626 0.52481 0.00000
O61 O 0.74841 0.54901 0.46853 0.00000
Zn62 Zn 0.79645 0.55773 0.49135 0.00000
Zn63 Zn 0.73838 0.47462 0.56933 0.00000
O64 O 0.78170 0.52554 0.59191 0.00000
Zn65 Zn 0.76996 0.54449 0.68808 0.00000
C66 C 0.79040 0.61071 0.61576 0.00000
O67 O 0.79611 0.54042 0.78211 0.00000
C68 C 0.70295 0.48870 0.71576 0.00000
O69 O 0.77885 0.59314 0.68281 0.00000
O70 O 0.80553 0.60459 0.55936 0.00000
O71 O 0.83161 0.52930 0.70644 0.00000
C72 C 0.77564 0.48804 0.40560 0.00000
O73 O 0.75521 0.46849 0.45791 0.00000
O74 O 0.79487 0.52075 0.40880 0.00000
C75 C 0.71643 0.52430 0.48561 0.00000
C76 C 0.81846 0.53078 0.77071 0.00000
H77 H 0.80216 0.52253 0.60704 0.00000
O78 O 0.71589 0.47097 0.68809 0.00000
O79 O 0.71996 0.52234 0.72120 0.00000
O80 O 0.16303 0.04236 0.80866 0.00000
O81 O 0.21579 0.08185 0.86493 0.00000
Zn82 Zn 0.22451 0.12990 0.84211 0.00000
Zn83 Zn 0.14140 0.07183 0.76413 0.00000
O84 O 0.19232 0.11514 0.74155 0.00000
Zn85 Zn 0.21127 0.10341 0.64538 0.00000
C86 C 0.27748 0.12383 0.71770 0.00000
O87 O 0.20720 0.12955 0.55135 0.00000
C88 C 0.15547 0.03640 0.61771 0.00000
O89 O 0.25991 0.11228 0.65065 0.00000
O90 O 0.27137 0.13896 0.77410 0.00000
O91 O 0.19609 0.16506 0.62701 0.00000
C92 C 0.15482 0.10910 0.92786 0.00000
O93 O 0.13527 0.08868 0.87555 0.00000
O94 O 0.18754 0.12832 0.92465 0.00000
C95 C 0.19107 0.04987 0.84786 0.00000
C96 C 0.19757 0.15190 0.56274 0.00000
H97 H 0.18931 0.13562 0.72642 0.00000
O98 O 0.13774 0.04934 0.64538 0.00000
O99 O 0.18911 0.05341 0.61227 0.00000
O100 O 0.95957 0.12158 0.80855 0.00000
O101 O 0.92006 0.13483 0.86481 0.00000
Zn102 Zn 0.87202 0.09551 0.84200 0.00000
Zn103 Zn 0.93011 0.07048 0.76404 0.00000
O104 O 0.88679 0.07809 0.74145 0.00000
Zn105 Zn 0.89851 0.10877 0.64527 0.00000
C106 C 0.87805 0.15454 0.71757 0.00000
O107 O 0.87237 0.07856 0.55125 0.00000
C108 C 0.96553 0.11998 0.61760 0.00000
O109 O 0.88960 0.14853 0.65052 0.00000
O110 O 0.86293 0.13330 0.77398 0.00000
O111 O 0.83688 0.03196 0.62692 0.00000
C112 C 0.89286 0.04664 0.92777 0.00000
O113 O 0.91328 0.04752 0.87546 0.00000
O114 O 0.87362 0.06013 0.92456 0.00000
C115 C 0.95204 0.14209 0.84774 0.00000
C116 C 0.85003 0.04659 0.56265 0.00000
H117 H 0.86632 0.05462 0.72632 0.00000
O118 O 0.95261 0.08932 0.64528 0.00000
O119 O 0.94851 0.13661 0.61215 0.00000
O120 O 0.83888 0.88024 0.19134 0.00000
O121 O 0.78613 0.86700 0.13505 0.00000
Zn122 Zn 0.77740 0.90633 0.15785 0.00000
Zn123 Zn 0.86051 0.93134 0.23585 0.00000
O124 O 0.80958 0.92375 0.25841 0.00000
Zn125 Zn 0.79064 0.89307 0.35459 0.00000
C126 C 0.72443 0.84732 0.28226 0.00000
O127 O 0.79469 0.92328 0.44860 0.00000
C128 C 0.84644 0.88184 0.38230 0.00000
O129 O 0.74199 0.85332 0.34932 0.00000
O130 O 0.73054 0.86855 0.22585 0.00000
O131 O 0.80580 0.96989 0.37292 0.00000
C132 C 0.84709 0.95519 0.07210 0.00000
O133 O 0.86664 0.95431 0.12442 0.00000
O134 O 0.81437 0.94171 0.07530 0.00000
C135 C 0.81085 0.85973 0.15214 0.00000
C136 C 0.80432 0.95526 0.43720 0.00000
H137 H 0.81259 0.94722 0.27353 0.00000
O138 O 0.86417 0.91250 0.35462 0.00000
O139 O 0.81280 0.86522 0.38773 0.00000
O140 O 0.88024 0.83888 0.80866 0.00000
O141 O 0.86701 0.78612 0.86495 0.00000
Zn142 Zn 0.90634 0.77740 0.84216 0.00000
Zn143 Zn 0.93134 0.86051 0.76415 0.00000
O144 O 0.92375 0.80958 0.74159 0.00000
Zn145 Zn 0.89308 0.79063 0.64541 0.00000
C146 C 0.84732 0.72442 0.71774 0.00000
O147 O 0.92328 0.79469 0.55140 0.00000
C148 C 0.88184 0.84643 0.61771 0.00000
O149 O 0.85333 0.74199 0.65068 0.00000
O150 O 0.86856 0.73053 0.77415 0.00000
O151 O 0.96989 0.80580 0.62708 0.00000
C152 C 0.95519 0.84709 0.92790 0.00000
O153 O 0.95431 0.86664 0.87558 0.00000
O154 O 0.94171 0.81437 0.92470 0.00000
C155 C 0.85974 0.81085 0.84786 0.00000
C156 C 0.95526 0.80432 0.56280 0.00000
H157 H 0.94723 0.81258 0.72647 0.00000
O158 O 0.91250 0.86416 0.64538 0.00000
O159 O 0.86522 0.81279 0.61228 0.00000
O160 O 0.21357 0.50557 0.47534 0.00000
O161 O 0.20033 0.45281 0.53163 0.00000
Zn162 Zn 0.23966 0.44409 0.50881 0.00000
Zn163 Zn 0.26467 0.52720 0.43083 0.00000
O164 O 0.25708 0.47627 0.40826 0.00000
Zn165 Zn 0.22640 0.45733 0.31208 0.00000
C166 C 0.18065 0.39112 0.38440 0.00000
O167 O 0.25661 0.46139 0.21806 0.00000
C168 C 0.21516 0.51313 0.28439 0.00000
O169 O 0.18665 0.40868 0.31734 0.00000
O170 O 0.20188 0.39722 0.44080 0.00000
O171 O 0.30322 0.47249 0.29373 0.00000
C172 C 0.28852 0.51377 0.59457 0.00000
O173 O 0.28764 0.53333 0.54225 0.00000
O174 O 0.27504 0.48105 0.59136 0.00000
C175 C 0.19306 0.47753 0.51454 0.00000
C176 C 0.28858 0.47102 0.22946 0.00000
H177 H 0.28055 0.47928 0.39313 0.00000
O178 O 0.24583 0.53086 0.31207 0.00000
O179 O 0.19855 0.47949 0.27896 0.00000
O180 O 0.49626 0.70891 0.47519 0.00000
O181 O 0.54901 0.74841 0.53147 0.00000
Zn182 Zn 0.55773 0.79646 0.50865 0.00000
Zn183 Zn 0.47462 0.73838 0.43067 0.00000
O184 O 0.52554 0.78170 0.40809 0.00000
Zn185 Zn 0.54449 0.76997 0.31192 0.00000
C186 C 0.61070 0.79040 0.38424 0.00000
O187 O 0.54042 0.79611 0.21789 0.00000
C188 C 0.48870 0.70295 0.28424 0.00000
O189 O 0.59314 0.77885 0.31719 0.00000
O190 O 0.60459 0.80553 0.44064 0.00000
O191 O 0.52930 0.83161 0.29356 0.00000
C192 C 0.48804 0.77564 0.59440 0.00000
O193 O 0.46848 0.75522 0.54208 0.00000
O194 O 0.52075 0.79487 0.59120 0.00000
C195 C 0.52430 0.71643 0.51439 0.00000
C196 C 0.53078 0.81846 0.22929 0.00000
H197 H 0.52253 0.80217 0.39296 0.00000
O198 O 0.47096 0.71589 0.31191 0.00000
O199 O 0.52234 0.71997 0.27880 0.00000
O200 O 0.29288 0.78825 0.47537 0.00000
O201 O 0.25338 0.80150 0.53164 0.00000
Zn202 Zn 0.20533 0.76219 0.50883 0.00000
Zn203 Zn 0.26342 0.73715 0.43086 0.00000
O204 O 0.22010 0.74476 0.40828 0.00000
Zn205 Zn 0.23182 0.77544 0.31209 0.00000
C206 C 0.21137 0.82122 0.38440 0.00000
O207 O 0.20568 0.74524 0.21808 0.00000
C208 C 0.29884 0.78664 0.28442 0.00000
O209 O 0.22292 0.81520 0.31735 0.00000
O210 O 0.19625 0.79998 0.44081 0.00000
O211 O 0.17019 0.69863 0.29375 0.00000
C212 C 0.22617 0.71331 0.59460 0.00000
O213 O 0.24659 0.71418 0.54228 0.00000
O214 O 0.20693 0.72681 0.59139 0.00000
C215 C 0.28536 0.80876 0.51456 0.00000
C216 C 0.18334 0.71326 0.22948 0.00000
H217 H 0.19963 0.72129 0.39315 0.00000
O218 O 0.28591 0.75598 0.31210 0.00000
O219 O 0.28182 0.80327 0.27897 0.00000
O220 O 0.50557 0.21357 0.52466 0.00000
O221 O 0.45281 0.20033 0.46837 0.00000
Zn222 Zn 0.44409 0.23966 0.49118 0.00000
Zn223 Zn 0.52720 0.26467 0.56917 0.00000
O224 O 0.47628 0.25708 0.59174 0.00000
Zn225 Zn 0.45733 0.22640 0.68792 0.00000
C226 C 0.39112 0.18065 0.61560 0.00000
O227 O 0.46139 0.25661 0.78194 0.00000
C228 C 0.51313 0.21516 0.71561 0.00000
O229 O 0.40868 0.18665 0.68266 0.00000
O230 O 0.39723 0.20188 0.55920 0.00000
O231 O 0.47250 0.30322 0.70627 0.00000
C232 C 0.51377 0.28852 0.40543 0.00000
O233 O 0.53333 0.28764 0.45775 0.00000
O234 O 0.48106 0.27504 0.40863 0.00000
C235 C 0.47753 0.19306 0.48546 0.00000
C236 C 0.47102 0.28858 0.77054 0.00000
H237 H 0.47928 0.28055 0.60687 0.00000
O238 O 0.53086 0.24583 0.68793 0.00000
O239 O 0.47949 0.19855 0.72104 0.00000
O240 O 0.78825 0.29288 0.52463 0.00000
O241 O 0.80151 0.25337 0.46836 0.00000
Zn242 Zn 0.76219 0.20533 0.49117 0.00000
Zn243 Zn 0.73715 0.26342 0.56914 0.00000
O244 O 0.74476 0.22009 0.59172 0.00000
Zn245 Zn 0.77544 0.23182 0.68790 0.00000
C246 C 0.82122 0.21136 0.61560 0.00000
O247 O 0.74524 0.20567 0.78192 0.00000
C248 C 0.78665 0.29883 0.71558 0.00000
O249 O 0.81521 0.22292 0.68265 0.00000
O250 O 0.79999 0.19624 0.55919 0.00000
O251 O 0.69864 0.17018 0.70625 0.00000
C252 C 0.71332 0.22616 0.40540 0.00000
O253 O 0.71419 0.24659 0.45772 0.00000
O254 O 0.72681 0.20693 0.40861 0.00000
C255 C 0.80877 0.28535 0.48544 0.00000
C256 C 0.71327 0.18333 0.77052 0.00000
H257 H 0.72129 0.19963 0.60685 0.00000
O258 O 0.75599 0.28591 0.68790 0.00000
O259 O 0.80328 0.28181 0.72103 0.00000
O260 O 0.82963 0.37561 0.14195 0.00000
O261 O 0.88238 0.41511 0.19824 0.00000
Zn262 Zn 0.89108 0.46316 0.17543 0.00000
Zn263 Zn 0.80798 0.40508 0.09744 0.00000
O264 O 0.85889 0.44840 0.07487 0.00000
Zn265 Zn 0.87785 0.43668 0.97869 0.00000
C266 C 0.94407 0.45712 0.05102 0.00000
O267 O 0.87378 0.46282 0.88467 0.00000
C268 C 0.82207 0.36966 0.95100 0.00000
O269 O 0.92651 0.44557 0.98396 0.00000
O270 O 0.93795 0.47224 0.10742 0.00000
O271 O 0.86265 0.49832 0.96035 0.00000
C272 C 0.82139 0.44233 0.26118 0.00000
O273 O 0.80184 0.42191 0.20886 0.00000
O274 O 0.85410 0.46156 0.25798 0.00000
C275 C 0.85766 0.38313 0.18115 0.00000
C276 C 0.86414 0.48516 0.89607 0.00000
H277 H 0.85588 0.46887 0.05975 0.00000
O278 O 0.80433 0.38259 0.97868 0.00000
O279 O 0.85571 0.38668 0.94557 0.00000
O280 O 0.62620 0.45489 0.14199 0.00000
O281 O 0.58668 0.46814 0.19826 0.00000
Zn282 Zn 0.53864 0.42882 0.17543 0.00000
Zn283 Zn 0.59674 0.40379 0.09747 0.00000
O284 O 0.55342 0.41140 0.07488 0.00000
Zn285 Zn 0.56514 0.44208 0.97870 0.00000
C286 C 0.54467 0.48784 0.05101 0.00000
O287 O 0.53900 0.41188 0.88468 0.00000
C288 C 0.63216 0.45329 0.95104 0.00000
O289 O 0.55623 0.48183 0.98396 0.00000
O290 O 0.52955 0.46661 0.10741 0.00000
O291 O 0.50351 0.36527 0.96034 0.00000
C292 C 0.55948 0.37995 0.26120 0.00000
O293 O 0.57991 0.38082 0.20889 0.00000
O294 O 0.54024 0.39343 0.25799 0.00000
C295 C 0.61866 0.47540 0.18118 0.00000
C296 C 0.51667 0.37990 0.89607 0.00000
H297 H 0.53295 0.38792 0.05975 0.00000
O298 O 0.61924 0.42263 0.97872 0.00000
O299 O 0.61514 0.46992 0.94560 0.00000
O300 O 0.54693 0.17221 0.14188 0.00000
O301 O 0.53369 0.11945 0.19817 0.00000
Zn302 Zn 0.57302 0.11072 0.17537 0.00000
Zn303 Zn 0.59803 0.19384 0.09737 0.00000
O304 O 0.59043 0.14291 0.07480 0.00000
Zn305 Zn 0.55975 0.12396 0.97863 0.00000
C306 C 0.51400 0.05775 0.05096 0.00000
O307 O 0.58996 0.12802 0.88461 0.00000
C308 C 0.54852 0.17976 0.95093 0.00000
O309 O 0.52000 0.07532 0.98390 0.00000
O310 O 0.53523 0.06386 0.10736 0.00000
O311 O 0.63657 0.13912 0.96028 0.00000
C312 C 0.62188 0.18041 0.26111 0.00000
O313 O 0.62100 0.19996 0.20879 0.00000
O314 O 0.60839 0.14769 0.25791 0.00000
C315 C 0.52642 0.14417 0.18108 0.00000
C316 C 0.62194 0.13765 0.89601 0.00000
H317 H 0.61391 0.14591 0.05968 0.00000
O318 O 0.57918 0.19749 0.97860 0.00000
O319 O 0.53190 0.14612 0.94550 0.00000
O320 O 0.17220 0.54693 0.85812 0.00000
O321 O 0.11945 0.53369 0.80183 0.00000
Zn322 Zn 0.11072 0.57302 0.82463 0.00000
Zn323 Zn 0.19383 0.59803 0.90263 0.00000
O324 O 0.14291 0.59044 0.92520 0.00000
Zn325 Zn 0.12396 0.55976 0.02137 0.00000
C326 C 0.05775 0.51400 0.94904 0.00000
O327 O 0.12801 0.58996 0.11539 0.00000
C328 C 0.17976 0.54852 0.04907 0.00000
O329 O 0.07531 0.52001 0.01610 0.00000
O330 O 0.06386 0.53524 0.89264 0.00000
O331 O 0.13912 0.63657 0.03972 0.00000
C332 C 0.18041 0.62188 0.73889 0.00000
O333 O 0.19996 0.62100 0.79121 0.00000
O334 O 0.14769 0.60840 0.74209 0.00000
C335 C 0.14417 0.52642 0.81892 0.00000
C336 C 0.13765 0.62194 0.10399 0.00000
H337 H 0.14591 0.61391 0.94032 0.00000
O338 O 0.19749 0.57919 0.02140 0.00000
O339 O 0.14612 0.53191 0.05450 0.00000
O340 O 0.45489 0.62620 0.85801 0.00000
O341 O 0.46814 0.58668 0.80174 0.00000
Zn342 Zn 0.42882 0.53864 0.82457 0.00000
Zn343 Zn 0.40379 0.59674 0.90253 0.00000
O344 O 0.41140 0.55342 0.92512 0.00000
Zn345 Zn 0.44208 0.56514 0.02130 0.00000
C346 C 0.48784 0.54468 0.94899 0.00000
O347 O 0.41188 0.53900 0.11532 0.00000
C348 C 0.45329 0.63216 0.04896 0.00000
O349 O 0.48183 0.55624 0.01604 0.00000
O350 O 0.46661 0.52955 0.89259 0.00000
O351 O 0.36527 0.50351 0.03966 0.00000
C352 C 0.37994 0.55948 0.73880 0.00000
O353 O 0.38082 0.57991 0.79111 0.00000
O354 O 0.39343 0.54024 0.74201 0.00000
C355 C 0.47540 0.61867 0.81882 0.00000
C356 C 0.37990 0.51667 0.10393 0.00000
H357 H 0.38792 0.53295 0.94025 0.00000
O358 O 0.42263 0.61924 0.02128 0.00000
O359 O 0.46992 0.61514 0.05440 0.00000
C360 C 0.30131 0.86513 0.63432 0.00000
C361 C 0.31398 0.84296 0.60884 0.00000
C362 C 0.33775 0.83970 0.65826 0.00000
C363 C 0.34831 0.85857 0.73103 0.00000
C364 C 0.33376 0.87921 0.75249 0.00000
H365 H 0.28560 0.86778 0.60030 0.00000
H366 H 0.34666 0.82500 0.64302 0.00000
H367 H 0.34044 0.89122 0.80234 0.00000
N368 N 0.31064 0.88292 0.70583 0.00000
C369 C 0.20556 0.97698 0.04855 0.00000
C370 C 0.17719 0.98272 0.06157 0.00000
C371 C 0.17139 0.00290 0.00569 0.00000
C372 C 0.19391 0.01683 0.93899 0.00000
C373 C 0.22080 0.00909 0.92977 0.00000
H374 H 0.20984 0.96376 0.08702 0.00000
H375 H 0.15257 0.00715 0.01256 0.00000
H376 H 0.23536 0.01795 0.88383 0.00000
N377 N 0.22711 0.98960 0.98295 0.00000
C378 C 0.98817 0.19115 0.11412 0.00000
C379 C 0.01280 0.18529 0.07288 0.00000
C380 C 0.00661 0.17531 0.99199 0.00000
C381 C 0.97622 0.17134 0.95470 0.00000
C382 C 0.95372 0.17855 0.99990 0.00000
H383 H 0.99207 0.19739 0.16927 0.00000
H384 H 0.02262 0.17127 0.96264 0.00000
H385 H 0.93374 0.17653 0.97348 0.00000
N386 N 0.95900 0.18827 0.07811 0.00000
C387 C 0.81766 0.50163 0.41927 0.00000
C388 C 0.78772 0.48247 0.37055 0.00000
C389 C 0.78639 0.45645 0.32044 0.00000
C390 C 0.81474 0.45036 0.31996 0.00000
C391 C 0.84294 0.46997 0.37167 0.00000
H392 H 0.81883 0.51963 0.45234 0.00000
H393 H 0.76668 0.44310 0.28723 0.00000
H394 H 0.86156 0.46518 0.37221 0.00000
N395 N 0.84501 0.49539 0.42098 0.00000
C396 C 0.07202 0.10094 0.02752 0.00000
C397 C 0.10424 0.13229 0.03727 0.00000
C398 C 0.13428 0.13406 0.00521 0.00000
C399 C 0.13149 0.10475 0.96490 0.00000
C400 C 0.09841 0.07511 0.95627 0.00000
H401 H 0.05172 0.09952 0.05028 0.00000
H402 H 0.15624 0.15469 0.01054 0.00000
H403 H 0.09667 0.05578 0.92758 0.00000
N404 N 0.06877 0.07258 0.98670 0.00000
C405 C 0.89794 0.98505 0.09325 0.00000
C406 C 0.86696 0.97527 0.04931 0.00000
C407 C 0.86723 0.99852 0.99195 0.00000
C408 C 0.89807 0.03070 0.98020 0.00000
C409 C 0.92778 0.03784 0.02492 0.00000
H410 H 0.89763 0.96955 0.13300 0.00000
H411 H 0.84694 0.99272 0.96140 0.00000
H412 H 0.94861 0.05923 0.01539 0.00000
N413 N 0.92835 0.01583 0.08101 0.00000
C414 C 0.97276 0.90137 0.96844 0.00000
C415 C 0.97303 0.86960 0.96194 0.00000
C416 C 0.00010 0.86773 0.99561 0.00000
C417 C 0.02781 0.89738 0.03429 0.00000
C418 C 0.02497 0.92747 0.03971 0.00000
H419 H 0.95409 0.90284 0.94457 0.00000
H420 H 0.00191 0.84681 0.99246 0.00000
H421 H 0.04275 0.94704 0.06732 0.00000
N422 N 0.99817 0.93010 0.00764 0.00000
C423 C 0.87036 0.81975 0.99990 0.00000
C424 C 0.84001 0.81237 0.95534 0.00000
C425 C 0.81664 0.82125 0.98958 0.00000
C426 C 0.82401 0.83700 0.06625 0.00000
C427 C 0.85511 0.84415 0.10458 0.00000
H428 H 0.88596 0.81326 0.97673 0.00000
H429 H 0.79613 0.81674 0.96161 0.00000
H430 H 0.86021 0.85542 0.15536 0.00000
N431 N 0.87831 0.83584 0.07294 0.00000
C432 C 0.18819 0.46572 0.67536 0.00000
C433 C 0.16913 0.47492 0.62195 0.00000
C434 C 0.15227 0.49190 0.65335 0.00000
C435 C 0.15471 0.49909 0.73652 0.00000
C436 C 0.17487 0.48985 0.78458 0.00000
H437 H 0.19918 0.45374 0.65437 0.00000
H438 H 0.13938 0.49848 0.61918 0.00000
H439 H 0.17698 0.49545 0.84014 0.00000
N440 N 0.19153 0.47334 0.75592 0.00000
C441 C 0.47694 0.61210 0.65864 0.00000
C442 C 0.49850 0.63983 0.71113 0.00000
C443 C 0.51673 0.67361 0.67962 0.00000
C444 C 0.51314 0.67880 0.59724 0.00000
C445 C 0.49054 0.64996 0.55016 0.00000
H446 H 0.46499 0.58913 0.67964 0.00000
H447 H 0.53131 0.69275 0.71320 0.00000
H448 H 0.48771 0.65381 0.49522 0.00000
N449 N 0.47250 0.61687 0.57896 0.00000
C450 C 0.58713 0.37850 0.38306 0.00000
C451 C 0.56488 0.36606 0.31506 0.00000
C452 C 0.53755 0.33150 0.31544 0.00000
C453 C 0.53321 0.31037 0.38290 0.00000
C454 C 0.55592 0.32511 0.44843 0.00000
H455 H 0.60599 0.40176 0.38236 0.00000
H456 H 0.52214 0.32239 0.27094 0.00000
H457 H 0.55236 0.31093 0.49424 0.00000
N458 N 0.58270 0.35855 0.44988 0.00000
C459 C 0.71527 0.22776 0.26648 0.00000
C460 C 0.70105 0.22708 0.34331 0.00000
C461 C 0.66477 0.20962 0.35153 0.00000
C462 C 0.64378 0.19354 0.28346 0.00000
C463 C 0.66008 0.19476 0.21019 0.00000
H464 H 0.73985 0.24003 0.26055 0.00000
H465 H 0.65443 0.20861 0.40218 0.00000
H466 H 0.64576 0.18324 0.16514 0.00000
N467 N 0.69521 0.21150 0.20029 0.00000
C468 C 0.52105 0.17840 0.44120 0.00000
C469 C 0.49069 0.17276 0.39978 0.00000
C470 C 0.48412 0.15747 0.32343 0.00000
C471 C 0.50786 0.14839 0.29050 0.00000
C472 C 0.53678 0.15410 0.33660 0.00000
H473 H 0.52581 0.18924 0.49242 0.00000
H474 H 0.46398 0.15327 0.29421 0.00000
H475 H 0.55221 0.14723 0.31469 0.00000
N476 N 0.54387 0.16889 0.41085 0.00000
C477 C 0.89716 0.37517 0.31532 0.00000
C478 C 0.86381 0.35649 0.27900 0.00000
C479 C 0.83681 0.32943 0.32250 0.00000
C480 C 0.84373 0.32167 0.40031 0.00000
C481 C 0.87730 0.34209 0.43236 0.00000
H482 H 0.91562 0.39316 0.28543 0.00000
H483 H 0.81417 0.31648 0.29998 0.00000
H484 H 0.88152 0.33717 0.48538 0.00000
N485 N 0.90405 0.36851 0.39165 0.00000
C486 C 0.72288 0.54554 0.32563 0.00000
C487 C 0.69440 0.52854 0.37945 0.00000
C488 C 0.66100 0.50797 0.34727 0.00000
C489 C 0.65688 0.50502 0.26297 0.00000
C490 C 0.68664 0.52205 0.21426 0.00000
H491 H 0.74545 0.55991 0.34734 0.00000
H492 H 0.64140 0.49618 0.38166 0.00000
H493 H 0.68371 0.51931 0.15769 0.00000
N494 N 0.71939 0.54219 0.24367 0.00000
C495 C 0.50630 0.79577 0.71396 0.00000
C496 C 0.47948 0.77949 0.65579 0.00000
C497 C 0.45323 0.78828 0.65392 0.00000
C498 C 0.45431 0.81276 0.70981 0.00000
C499 C 0.48231 0.82825 0.76394 0.00000
H500 H 0.52381 0.78944 0.71610 0.00000
H501 H 0.43495 0.77791 0.61560 0.00000
H502 H 0.48323 0.84524 0.80016 0.00000
N503 N 0.50817 0.82026 0.76726 0.00000
C504 C 0.19828 0.67811 0.54663 0.00000
C505 C 0.21576 0.69367 0.61954 0.00000
C506 C 0.21203 0.67191 0.68432 0.00000
C507 C 0.19103 0.63551 0.67494 0.00000
C508 C 0.17541 0.62233 0.59999 0.00000
H509 H 0.20035 0.69286 0.50308 0.00000
H510 H 0.22346 0.68149 0.73388 0.00000
H511 H 0.16194 0.59779 0.59370 0.00000
N512 N 0.17852 0.64277 0.53599 0.00000
C513 C 0.30399 0.56683 0.64576 0.00000
C514 C 0.30590 0.53632 0.63084 0.00000
C515 C 0.33469 0.53479 0.66026 0.00000
C516 C 0.36069 0.56353 0.70317 0.00000
C517 C 0.35623 0.59231 0.71689 0.00000
H518 H 0.28475 0.56812 0.62480 0.00000
H519 H 0.33671 0.51470 0.65147 0.00000
H520 H 0.37347 0.61121 0.74728 0.00000
N521 N 0.32859 0.59458 0.68912 0.00000
C522 C 0.52191 0.01270 0.09705 0.00000
C523 C 0.50679 0.02685 0.04499 0.00000
C524 C 0.48318 0.00512 0.98658 0.00000
C525 C 0.47542 0.97017 0.98140 0.00000
C526 C 0.49093 0.95813 0.03674 0.00000
H527 H 0.53832 0.02755 0.13586 0.00000
H528 H 0.47253 0.01376 0.95093 0.00000
H529 H 0.48499 0.93440 0.03392 0.00000
N530 N 0.51394 0.97858 0.09409 0.00000
C531 C 0.16436 0.83672 0.21175 0.00000
C532 C 0.16499 0.85576 0.28090 0.00000
C533 C 0.18177 0.85344 0.34998 0.00000
C534 C 0.19723 0.83228 0.34845 0.00000
C535 C 0.19613 0.81506 0.27674 0.00000
H536 H 0.15254 0.83785 0.16529 0.00000
H537 H 0.18272 0.86593 0.39720 0.00000
H538 H 0.20724 0.80148 0.27574 0.00000
N539 N 0.18005 0.81678 0.20872 0.00000
C540 C 0.18007 0.30975 0.28719 0.00000
C541 C 0.14648 0.30531 0.30045 0.00000
C542 C 0.14402 0.33223 0.33818 0.00000
C543 C 0.17484 0.36257 0.36179 0.00000
C544 C 0.20703 0.36510 0.34443 0.00000
H545 H 0.18176 0.29130 0.26274 0.00000
H546 H 0.12192 0.33012 0.34776 0.00000
H547 H 0.22764 0.38589 0.35897 0.00000
N548 N 0.21027 0.33943 0.30792 0.00000
C549 C 0.77928 0.61904 0.71668 0.00000
C550 C 0.79724 0.63579 0.64508 0.00000
C551 C 0.82211 0.67128 0.64845 0.00000
C552 C 0.82830 0.68904 0.72241 0.00000
C553 C 0.80996 0.67019 0.79072 0.00000
H554 H 0.76203 0.59512 0.71422 0.00000
H555 H 0.83465 0.68323 0.60163 0.00000
H556 H 0.81483 0.68217 0.84055 0.00000
N557 N 0.78566 0.63575 0.78939 0.00000
C558 C 0.35573 0.20211 0.60813 0.00000
C559 C 0.36259 0.17529 0.63102 0.00000
C560 C 0.33692 0.14675 0.67369 0.00000
C561 C 0.30539 0.14577 0.69254 0.00000
C562 C 0.30047 0.17304 0.66570 0.00000
H563 H 0.37332 0.22172 0.58029 0.00000
H564 H 0.34066 0.12832 0.68973 0.00000
H565 H 0.27889 0.17180 0.67716 0.00000
N566 N 0.32488 0.20108 0.62421 0.00000
C567 C 0.84567 0.22631 0.71150 0.00000
C568 C 0.84044 0.20511 0.64313 0.00000
C569 C 0.84912 0.17885 0.64878 0.00000
C570 C 0.86281 0.17452 0.72172 0.00000
C571 C 0.86628 0.19612 0.78698 0.00000
H572 H 0.84030 0.24446 0.70737 0.00000
H573 H 0.84586 0.16416 0.60417 0.00000
H574 H 0.87481 0.19253 0.83632 0.00000
N575 N 0.85810 0.22183 0.78339 0.00000
C576 C 0.70618 0.87317 0.34361 0.00000
C577 C 0.69929 0.84070 0.31137 0.00000
C578 C 0.66689 0.81128 0.32709 0.00000
C579 C 0.64246 0.81491 0.37440 0.00000
C580 C 0.65116 0.84821 0.40214 0.00000
H581 H 0.72833 0.89303 0.33404 0.00000
H582 H 0.66143 0.78918 0.30622 0.00000
H583 H 0.63429 0.85054 0.43246 0.00000
N584 N 0.68237 0.87726 0.38792 0.00000
C585 C 0.01724 0.45815 0.92082 0.00000
C586 C 0.02515 0.49163 0.94816 0.00000
C587 C 0.00270 0.49394 0.00382 0.00000
C588 C 0.97311 0.46308 0.03031 0.00000
C589 C 0.96778 0.43098 0.00162 0.00000
H590 H 0.03214 0.45658 0.88218 0.00000
H591 H 0.00731 0.51596 0.02345 0.00000
H592 H 0.94822 0.41033 0.02107 0.00000
N593 N 0.98908 0.42789 0.94759 0.00000
C594 C 0.48783 0.46658 0.05934 0.00000
C595 C 0.52149 0.49322 0.03580 0.00000
C596 C 0.52434 0.52169 0.99282 0.00000
C597 C 0.49383 0.52279 0.97430 0.00000
C598 C 0.46168 0.49571 0.00177 0.00000
H599 H 0.48581 0.44701 0.08740 0.00000
H600 H 0.54650 0.54000 0.97634 0.00000
H601 H 0.44137 0.49703 0.99053 0.00000
N602 N 0.45805 0.46773 0.04358 0.00000
C603 C 0.28181 0.78110 0.20973 0.00000
C604 C 0.31726 0.80043 0.23336 0.00000
C605 C 0.34261 0.81640 0.17350 0.00000
C606 C 0.33205 0.81262 0.09230 0.00000
C607 C 0.29632 0.79376 0.07455 0.00000
H608 H 0.26465 0.76982 0.25014 0.00000
H609 H 0.36656 0.82959 0.18733 0.00000
H610 H 0.28942 0.79198 0.01992 0.00000
N611 N 0.27110 0.77795 0.13127 0.00000
C612 C 0.17493 0.03633 0.40419 0.00000
C613 C 0.15120 0.00010 0.42316 0.00000
C614 C 0.14138 0.99222 0.50355 0.00000
C615 C 0.15545 0.01865 0.56250 0.00000
C616 C 0.17808 0.05308 0.53803 0.00000
H617 H 0.18202 0.04222 0.34990 0.00000
H618 H 0.12547 0.96882 0.51822 0.00000
H619 H 0.18684 0.07080 0.57785 0.00000
N620 N 0.18811 0.06242 0.46051 0.00000
C621 C 0.95080 0.13490 0.54430 0.00000
C622 C 0.98294 0.13744 0.56596 0.00000
C623 C 0.00800 0.14561 0.50595 0.00000
C624 C 0.00010 0.15086 0.42651 0.00000
C625 C 0.96824 0.14870 0.41089 0.00000
H626 H 0.93359 0.12884 0.58467 0.00000
H627 H 0.02982 0.14758 0.51851 0.00000
H628 H 0.96364 0.15301 0.35764 0.00000
N629 N 0.94338 0.14082 0.46781 0.00000
C630 C 0.88987 0.52451 0.83280 0.00000
C631 C 0.85835 0.49391 0.85316 0.00000
C632 C 0.82693 0.49356 0.84101 0.00000
C633 C 0.82774 0.52353 0.80945 0.00000
C634 C 0.86007 0.55234 0.78908 0.00000
H635 H 0.91121 0.52497 0.84215 0.00000
H636 H 0.80537 0.47346 0.85384 0.00000
H637 H 0.86032 0.57210 0.76629 0.00000
N638 N 0.89101 0.55348 0.80016 0.00000
C639 C 0.16802 0.14715 0.61708 0.00000
C640 C 0.17754 0.14790 0.53536 0.00000
C641 C 0.16904 0.16641 0.48041 0.00000
C642 C 0.15130 0.18344 0.50803 0.00000
C643 C 0.14369 0.18207 0.59033 0.00000
H644 H 0.17330 0.13418 0.65416 0.00000
H645 H 0.17511 0.16749 0.42532 0.00000
H646 H 0.13242 0.19422 0.60866 0.00000
N647 N 0.15159 0.16432 0.64515 0.00000
C648 C 0.86986 0.02345 0.59925 0.00000
C649 C 0.85682 0.03114 0.52900 0.00000
C650 C 0.83249 0.00338 0.48210 0.00000
C651 C 0.82197 0.96896 0.50607 0.00000
C652 C 0.83556 0.96374 0.57760 0.00000
H653 H 0.88675 0.04225 0.63042 0.00000
H654 H 0.82319 0.00764 0.43482 0.00000
H655 H 0.82778 0.94050 0.59417 0.00000
N656 N 0.85921 0.99014 0.62440 0.00000
C657 C 0.98035 0.82585 0.62026 0.00000
C658 C 0.97149 0.82284 0.53755 0.00000
C659 C 0.99833 0.83446 0.48078 0.00000
C660 C 0.03302 0.84879 0.50770 0.00000
C661 C 0.03931 0.84994 0.59067 0.00000
H662 H 0.96225 0.81847 0.65883 0.00000
H663 H 0.99326 0.83274 0.42494 0.00000
H664 H 0.06265 0.85892 0.60817 0.00000
N665 N 0.01384 0.83887 0.64725 0.00000
C666 C 0.85697 0.90137 0.45210 0.00000
C667 C 0.85587 0.86978 0.43149 0.00000
C668 C 0.85647 0.84878 0.49362 0.00000
C669 C 0.85828 0.85978 0.57399 0.00000
C670 C 0.85837 0.89100 0.58894 0.00000
H671 H 0.85710 0.91588 0.41001 0.00000
H672 H 0.85569 0.82744 0.48185 0.00000
H673 H 0.85884 0.89783 0.64323 0.00000
N674 N 0.85782 0.91195 0.52996 0.00000
C675 C 0.15591 0.54147 0.12350 0.00000
C676 C 0.18132 0.53259 0.10061 0.00000
C677 C 0.19578 0.52140 0.16032 0.00000
C678 C 0.18472 0.51951 0.24067 0.00000
C679 C 0.15878 0.52796 0.25757 0.00000
H680 H 0.14648 0.54956 0.08330 0.00000
H681 H 0.21278 0.51518 0.14695 0.00000
H682 H 0.15097 0.52590 0.31150 0.00000
N683 N 0.14426 0.53890 0.20098 0.00000
C684 C 0.52921 0.69250 0.22614 0.00000
C685 C 0.49348 0.68212 0.23471 0.00000
C686 C 0.47129 0.66628 0.16913 0.00000
C687 C 0.48520 0.66137 0.09722 0.00000
C688 C 0.52071 0.67164 0.09477 0.00000
H689 H 0.54438 0.70372 0.27012 0.00000
H690 H 0.44721 0.65896 0.17298 0.00000
H691 H 0.52969 0.66756 0.04674 0.00000
N692 N 0.54292 0.68708 0.15737 0.00000
C693 C 0.55671 0.36496 0.84670 0.00000
C694 C 0.52553 0.36645 0.84157 0.00000
C695 C 0.49412 0.33534 0.82975 0.00000
C696 C 0.49461 0.30384 0.82307 0.00000
C697 C 0.52656 0.30469 0.83092 0.00000
H698 H 0.57808 0.38609 0.85349 0.00000
H699 H 0.47278 0.33543 0.82625 0.00000
H700 H 0.52654 0.28329 0.82808 0.00000
N701 N 0.55748 0.33445 0.84241 0.00000
C702 C 0.70026 0.22339 0.84043 0.00000
C703 C 0.70019 0.19164 0.82913 0.00000
C704 C 0.66833 0.16043 0.83290 0.00000
C705 C 0.63762 0.16166 0.84803 0.00000
C706 C 0.64001 0.19430 0.85644 0.00000
H707 H 0.72190 0.24453 0.83911 0.00000
H708 H 0.66738 0.13874 0.82540 0.00000
H709 H 0.61913 0.19491 0.86489 0.00000
N710 N 0.67053 0.22504 0.85311 0.00000
C711 C 0.53966 0.23891 0.77829 0.00000
C712 C 0.52556 0.20286 0.76281 0.00000
C713 C 0.51998 0.18065 0.82792 0.00000
C714 C 0.52866 0.19486 0.90608 0.00000
C715 C 0.54167 0.23072 0.91607 0.00000
H716 H 0.54395 0.25407 0.73409 0.00000
H717 H 0.51050 0.15638 0.81961 0.00000
H718 H 0.54673 0.23993 0.96902 0.00000
N719 N 0.54738 0.25295 0.85410 0.00000
C720 C 0.82968 0.38597 0.87675 0.00000
C721 C 0.81653 0.35081 0.90020 0.00000
C722 C 0.80872 0.32586 0.84010 0.00000
C723 C 0.81404 0.33649 0.75885 0.00000
C724 C 0.82799 0.37198 0.74125 0.00000
H725 H 0.83448 0.40282 0.91735 0.00000
H726 H 0.79996 0.30212 0.85380 0.00000
H727 H 0.83218 0.37900 0.68655 0.00000
N728 N 0.83583 0.39682 0.79820 0.00000
C729 C 0.63833 0.48769 0.74132 0.00000
C730 C 0.66970 0.48762 0.75784 0.00000
C731 C 0.67569 0.48068 0.83652 0.00000
C732 C 0.65054 0.47417 0.89627 0.00000
C733 C 0.61983 0.47388 0.87411 0.00000
H734 H 0.63448 0.49292 0.68829 0.00000
H735 H 0.69639 0.48035 0.84951 0.00000
H736 H 0.60273 0.46875 0.91431 0.00000
N737 N 0.61326 0.48053 0.79828 0.00000
C738 C 0.47837 0.85218 0.25584 0.00000
C739 C 0.48629 0.85321 0.17290 0.00000
C740 C 0.50333 0.83556 0.14700 0.00000
C741 C 0.51210 0.81760 0.20401 0.00000
C742 C 0.50247 0.81722 0.28457 0.00000
H743 H 0.46730 0.86457 0.27367 0.00000
H744 H 0.50893 0.83567 0.09185 0.00000
H745 H 0.50781 0.80446 0.32220 0.00000
N746 N 0.48592 0.83409 0.31158 0.00000
C747 C 0.19391 0.68891 0.27894 0.00000
C748 C 0.18847 0.69742 0.20007 0.00000
C749 C 0.16768 0.67019 0.14745 0.00000
C750 C 0.15309 0.63549 0.17448 0.00000
C751 C 0.15913 0.62949 0.25419 0.00000
H752 H 0.20843 0.70731 0.31427 0.00000
H753 H 0.16346 0.67501 0.09431 0.00000
H754 H 0.14860 0.60609 0.27238 0.00000
N755 N 0.17918 0.65534 0.30670 0.00000
C756 C 0.31363 0.49571 0.28621 0.00000
C757 C 0.30475 0.49015 0.20347 0.00000
C758 C 0.33162 0.50051 0.14718 0.00000
C759 C 0.36637 0.51615 0.17457 0.00000
C760 C 0.37269 0.51983 0.25769 0.00000
H761 H 0.29548 0.48918 0.32435 0.00000
H762 H 0.32655 0.49708 0.09136 0.00000
H763 H 0.39607 0.52969 0.27564 0.00000
N764 N 0.34718 0.51004 0.31381 0.00000
loop_
_geom_bond_atom_site_label_1
_geom_bond_atom_site_label_2
_geom_bond_distance
_geom_bond_site_symmetry_2
_ccdc_geom_bond_type
O0 Zn3 2.062 . S
O0 C15 1.265 . A
O1 Zn2 1.961 . S
O1 C15 1.292 . A
Zn2 O4 2.038 . S
Zn2 O10 2.174 . S
Zn2 O14 2.069 . S
Zn3 O4 2.099 . S
Zn3 O13 2.024 . S
Zn3 O18 2.138 1_556 S
O4 Zn5 1.953 1_556 S
O4 H17 0.992 . S
Zn5 O7 1.967 . S
Zn5 O9 1.951 . S
Zn5 O19 1.961 . S
C6 O9 1.283 1_556 A
C6 O10 1.233 . A
O7 C16 1.248 . S
C8 O18 1.243 . A
C8 O19 1.269 . A
O11 C16 1.210 . D
C12 O13 1.217 . A
C12 O14 1.238 . A
O20 Zn23 2.062 . S
O20 C35 1.265 . A
O21 Zn22 1.961 . S
O21 C35 1.292 . A
Zn22 O24 2.038 . S
Zn22 O30 2.174 . S
Zn22 O34 2.069 . S
Zn23 O24 2.099 . S
Zn23 O33 2.024 . S
Zn23 O38 2.138 . S
O24 Zn25 1.953 . S
O24 H37 0.992 . S
Zn25 O27 1.967 . S
Zn25 O29 1.951 . S
Zn25 O39 1.961 . S
C26 O29 1.283 . A
C26 O30 1.233 . A
O27 C36 1.248 . S
C28 O38 1.243 . A
C28 O39 1.269 . A
O31 C36 1.210 . D
C32 O33 1.217 . A
C32 O34 1.238 . A
O40 Zn43 2.062 . S
O40 C55 1.265 . A
O41 Zn42 1.961 . S
O41 C55 1.292 . A
Zn42 O44 2.038 . S
Zn42 O50 2.174 . S
Zn42 O54 2.069 . S
Zn43 O44 2.099 . S
Zn43 O53 2.024 . S
Zn43 O58 2.138 . S
O44 Zn45 1.953 . S
O44 H57 0.992 . S
Zn45 O47 1.967 . S
Zn45 O49 1.951 . S
Zn45 O59 1.961 . S
C46 O49 1.283 . A
C46 O50 1.233 . A
O47 C56 1.248 . S
C48 O58 1.243 . A
C48 O59 1.269 . A
O51 C56 1.210 . D
C52 O53 1.217 . A
C52 O54 1.238 . A
O60 Zn63 2.062 . S
O60 C75 1.265 . A
O61 Zn62 1.961 . S
O61 C75 1.292 . A
Zn62 O64 2.038 . S
Zn62 O70 2.174 . S
Zn62 O74 2.069 . S
Zn63 O64 2.099 . S
Zn63 O73 2.024 . S
Zn63 O78 2.138 . S
O64 Zn65 1.953 . S
O64 H77 0.992 . S
Zn65 O67 1.967 . S
Zn65 O69 1.951 . S
Zn65 O79 1.961 . S
C66 O69 1.283 . A
C66 O70 1.233 . A
O67 C76 1.248 . S
C68 O78 1.243 . A
C68 O79 1.269 . A
O71 C76 1.210 . D
C72 O73 1.217 . A
C72 O74 1.238 . A
O80 Zn83 2.062 . S
O80 C95 1.265 . A
O81 Zn82 1.961 . S
O81 C95 1.292 . A
Zn82 O84 2.038 . S
Zn82 O90 2.174 . S
Zn82 O94 2.069 . S
Zn83 O84 2.099 . S
Zn83 O93 2.024 . S
Zn83 O98 2.138 . S
O84 Zn85 1.953 . S
O84 H97 0.992 . S
Zn85 O87 1.967 . S
Zn85 O89 1.951 . S
Zn85 O99 1.961 . S
C86 O89 1.283 . A
C86 O90 1.233 . A
O87 C96 1.248 . S
C88 O98 1.243 . A
C88 O99 1.269 . A
O91 C96 1.210 . D
C92 O93 1.217 . A
C92 O94 1.238 . A
O100 Zn103 2.062 . S
O100 C115 1.265 . A
O101 Zn102 1.961 . S
O101 C115 1.292 . A
Zn102 O104 2.038 . S
Zn102 O110 2.174 . S
Zn102 O114 2.069 . S
Zn103 O104 2.099 . S
Zn103 O113 2.024 . S
Zn103 O118 2.138 . S
O104 Zn105 1.953 . S
O104 H117 0.992 . S
Zn105 O107 1.967 . S
Zn105 O109 1.951 . S
Zn105 O119 1.961 . S
C106 O109 1.283 . A
C106 O110 1.233 . A
O107 C116 1.248 . S
C108 O118 1.243 . A
C108 O119 1.269 . A
O111 C116 1.210 . D
C112 O113 1.217 . A
C112 O114 1.238 . A
O120 Zn123 2.062 . S
O120 C135 1.265 . A
O121 Zn122 1.961 . S
O121 C135 1.292 . A
Zn122 O124 2.038 . S
Zn122 O130 2.174 . S
Zn122 O134 2.069 . S
Zn123 O124 2.099 . S
Zn123 O133 2.024 . S
Zn123 O138 2.138 . S
O124 Zn125 1.953 . S
O124 H137 0.992 . S
Zn125 O127 1.967 . S
Zn125 O129 1.951 . S
Zn125 O139 1.961 . S
C126 O129 1.283 . A
C126 O130 1.233 . A
O127 C136 1.248 . S
C128 O138 1.243 . A
C128 O139 1.269 . A
O131 C136 1.210 . D
C132 O133 1.217 . A
C132 O134 1.238 . A
O140 Zn143 2.062 . S
O140 C155 1.265 . A
O141 Zn142 1.961 . S
O141 C155 1.292 . A
Zn142 O144 2.038 . S
Zn142 O150 2.174 . S
Zn142 O154 2.069 . S
Zn143 O144 2.099 . S
Zn143 O153 2.024 . S
Zn143 O158 2.138 . S
O144 Zn145 1.953 . S
O144 H157 0.992 . S
Zn145 O147 1.967 . S
Zn145 O149 1.951 . S
Zn145 O159 1.961 . S
C146 O149 1.283 . A
C146 O150 1.233 . A
O147 C156 1.248 . S
C148 O158 1.243 . A
C148 O159 1.269 . A
O151 C156 1.210 . D
C152 O153 1.217 . A
C152 O154 1.238 . A
O160 Zn163 2.062 . S
O160 C175 1.265 . A
O161 Zn162 1.961 . S
O161 C175 1.292 . A
Zn162 O164 2.038 . S
Zn162 O170 2.174 . S
Zn162 O174 2.069 . S
Zn163 O164 2.099 . S
Zn163 O173 2.024 . S
Zn163 O178 2.138 . S
O164 Zn165 1.953 . S
O164 H177 0.992 . S
Zn165 O167 1.967 . S
Zn165 O169 1.951 . S
Zn165 O179 1.961 . S
C166 O169 1.283 . A
C166 O170 1.233 . A
O167 C176 1.248 . S
C168 O178 1.243 . A
C168 O179 1.269 . A
O171 C176 1.210 . D
C172 O173 1.217 . A
C172 O174 1.238 . A
O180 Zn183 2.062 . S
O180 C195 1.265 . A
O181 Zn182 1.961 . S
O181 C195 1.292 . A
Zn182 O184 2.038 . S
Zn182 O190 2.174 . S
Zn182 O194 2.069 . S
Zn183 O184 2.099 . S
Zn183 O193 2.024 . S
Zn183 O198 2.138 . S
O184 Zn185 1.953 . S
O184 H197 0.992 . S
Zn185 O187 1.967 . S
Zn185 O189 1.951 . S
Zn185 O199 1.961 . S
C186 O189 1.283 . A
C186 O190 1.233 . A
O187 C196 1.248 . S
C188 O198 1.243 . A
C188 O199 1.269 . A
O191 C196 1.210 . D
C192 O193 1.217 . A
C192 O194 1.238 . A
O200 Zn203 2.062 . S
O200 C215 1.265 . A
O201 Zn202 1.961 . S
O201 C215 1.292 . A
Zn202 O204 2.038 . S
Zn202 O210 2.174 . S
Zn202 O214 2.069 . S
Zn203 O204 2.099 . S
Zn203 O213 2.024 . S
Zn203 O218 2.138 . S
O204 Zn205 1.953 . S
O204 H217 0.992 . S
Zn205 O207 1.967 . S
Zn205 O209 1.951 . S
Zn205 O219 1.961 . S
C206 O209 1.283 . A
C206 O210 1.233 . A
O207 C216 1.248 . S
C208 O218 1.243 . A
C208 O219 1.269 . A
O211 C216 1.210 . D
C212 O213 1.217 . A
C212 O214 1.238 . A
O220 Zn223 2.062 . S
O220 C235 1.265 . A
O221 Zn222 1.961 . S
O221 C235 1.292 . A
Zn222 O224 2.038 . S
Zn222 O230 2.174 . S
Zn222 O234 2.069 . S
Zn223 O224 2.099 . S
Zn223 O233 2.024 . S
Zn223 O238 2.138 . S
O224 Zn225 1.953 . S
O224 H237 0.992 . S
Zn225 O227 1.967 . S
Zn225 O229 1.951 . S
Zn225 O239 1.961 . S
C226 O229 1.283 . A
C226 O230 1.233 . A
O227 C236 1.248 . S
C228 O238 1.243 . A
C228 O239 1.269 . A
O231 C236 1.210 . D
C232 O233 1.217 . A
C232 O234 1.238 . A
O240 Zn243 2.062 . S
O240 C255 1.265 . A
O241 Zn242 1.961 . S
O241 C255 1.292 . A
Zn242 O244 2.038 . S
Zn242 O250 2.174 . S
Zn242 O254 2.069 . S
Zn243 O244 2.099 . S
Zn243 O253 2.024 . S
Zn243 O258 2.138 . S
O244 Zn245 1.953 . S
O244 H257 0.992 . S
Zn245 O247 1.967 . S
Zn245 O249 1.951 . S
Zn245 O259 1.961 . S
C246 O249 1.283 . A
C246 O250 1.233 . A
O247 C256 1.248 . S
C248 O258 1.243 . A
C248 O259 1.269 . A
O251 C256 1.210 . D
C252 O253 1.217 . A
C252 O254 1.238 . A
O260 Zn263 2.062 . S
O260 C275 1.265 . A
O261 Zn262 1.961 . S
O261 C275 1.292 . A
Zn262 O264 2.038 . S
Zn262 O270 2.174 . S
Zn262 O274 2.069 . S
Zn263 O264 2.099 . S
Zn263 O273 2.024 . S
Zn263 O278 2.138 1_554 S
O264 Zn265 1.953 1_554 S
O264 H277 0.992 . S
Zn265 O267 1.967 . S
Zn265 O269 1.951 . S
Zn265 O279 1.961 . S
C266 O269 1.283 1_554 A
C266 O270 1.233 . A
O267 C276 1.248 . S
C268 O278 1.243 . A
C268 O279 1.269 . A
O271 C276 1.210 . D
C272 O273 1.217 . A
C272 O274 1.238 . A
O280 Zn283 2.062 . S
O280 C295 1.265 . A
O281 Zn282 1.961 . S
O281 C295 1.292 . A
Zn282 O284 2.038 . S
Zn282 O290 2.174 . S
Zn282 O294 2.069 . S
Zn283 O284 2.099 . S
Zn283 O293 2.024 . S
Zn283 O298 2.138 1_554 S
O284 Zn285 1.953 1_554 S
O284 H297 0.992 . S
Zn285 O287 1.967 . S
Zn285 O289 1.951 . S
Zn285 O299 1.961 . S
C286 O289 1.283 1_554 A
C286 O290 1.233 . A
O287 C296 1.248 . S
C288 O298 1.243 . A
C288 O299 1.269 . A
O291 C296 1.210 . D
C292 O293 1.217 . A
C292 O294 1.238 . A
O300 Zn303 2.062 . S
O300 C315 1.265 . A
O301 Zn302 1.961 . S
O301 C315 1.292 . A
Zn302 O304 2.038 . S
Zn302 O310 2.174 . S
Zn302 O314 2.069 . S
Zn303 O304 2.099 . S
Zn303 O313 2.024 . S
Zn303 O318 2.138 1_554 S
O304 Zn305 1.953 1_554 S
O304 H317 0.992 . S
Zn305 O307 1.967 . S
Zn305 O309 1.951 . S
Zn305 O319 1.961 . S
C306 O309 1.283 1_554 A
C306 O310 1.233 . A
O307 C316 1.248 . S
C308 O318 1.243 . A
C308 O319 1.269 . A
O311 C316 1.210 . D
C312 O313 1.217 . A
C312 O314 1.238 . A
O320 Zn323 2.062 . S
O320 C335 1.265 . A
O321 Zn322 1.961 . S
O321 C335 1.292 . A
Zn322 O324 2.038 . S
Zn322 O330 2.174 . S
Zn322 O334 2.069 . S
Zn323 O324 2.099 . S
Zn323 O333 2.024 . S
Zn323 O338 2.138 1_556 S
O324 Zn325 1.953 1_556 S
O324 H337 0.992 . S
Zn325 O327 1.967 . S
Zn325 O329 1.951 . S
Zn325 O339 1.961 . S
C326 O329 1.283 1_556 A
C326 O330 1.233 . A
O327 C336 1.248 . S
C328 O338 1.243 . A
C328 O339 1.269 . A
O331 C336 1.210 . D
C332 O333 1.217 . A
C332 O334 1.238 . A
O340 Zn343 2.062 . S
O340 C355 1.265 . A
O341 Zn342 1.961 . S
O341 C355 1.292 . A
Zn342 O344 2.038 . S
Zn342 O350 2.174 . S
Zn342 O354 2.069 . S
Zn343 O344 2.099 . S
Zn343 O353 2.024 . S
Zn343 O358 2.138 1_556 S
O344 Zn345 1.953 1_556 S
O344 H357 0.992 . S
Zn345 O347 1.967 . S
Zn345 O349 1.951 . S
Zn345 O359 1.961 . S
C346 O349 1.283 1_556 A
C346 O350 1.233 . A
O347 C356 1.248 . S
C348 O358 1.243 . A
C348 O359 1.269 . A
O351 C356 1.210 . D
C352 O353 1.217 . A
C352 O354 1.238 . A
C360 C361 1.390 . A
C360 H365 0.930 . S
C360 N368 1.344 . A
C361 C362 1.372 . A
C362 C363 1.383 . A
C362 H366 0.930 . S
C363 C364 1.376 . A
C364 H367 0.930 . S
C364 N368 1.332 . A
C369 C370 1.390 . A
C369 H374 0.930 . S
C369 N377 1.344 1_554 A
C370 C371 1.372 1_565 A
C371 C372 1.383 1_554 A
C371 H375 0.930 . S
C372 C373 1.376 . A
C373 H376 0.930 . S
C373 N377 1.332 1_545 A
C378 C379 1.390 1_655 A
C378 H383 0.930 . S
C378 N386 1.344 . A
C379 C380 1.372 1_554 A
C380 C381 1.383 1_455 A
C380 H384 0.930 . S
C381 C382 1.379 . A
C382 H385 0.933 . S
C382 N386 1.326 1_556 A
C387 C388 1.390 . A
C387 H392 0.930 . S
C387 N395 1.344 . A
C388 C389 1.372 . A
C389 C390 1.383 . A
C389 H393 0.930 . S
C390 C391 1.376 . A
C391 H394 0.930 . S
C391 N395 1.332 . A
C396 C397 1.390 . A
C396 H401 0.930 . S
C396 N404 1.344 1_554 A
C397 C398 1.372 . A
C398 C399 1.383 1_554 A
C398 H402 0.930 . S
C399 C400 1.376 . A
C400 H403 0.930 . S
C400 N404 1.332 . A
C405 C406 1.390 . A
C405 H410 0.930 . S
C405 N413 1.344 1_565 A
C406 C407 1.372 1_554 A
C407 C408 1.383 1_565 A
C407 H411 0.930 . S
C408 C409 1.376 1_556 A
C409 H412 0.930 . S
C409 N413 1.332 . A
C414 C415 1.390 . A
C414 H419 0.930 . S
C414 N422 1.344 1_556 A
C415 C416 1.336 1_655 A
C416 C417 1.398 1_556 A
C416 H420 0.952 . S
C417 C418 1.376 . A
C418 H421 0.930 . S
C418 N422 1.332 1_455 A
C423 C424 1.395 . A
C423 H428 0.933 . S
C423 N431 1.336 1_556 A
C424 C425 1.372 . A
C425 C426 1.383 1_556 A
C425 H429 0.930 . S
C426 C427 1.376 . A
C427 H430 0.930 . S
C427 N431 1.332 . A
C432 C433 1.390 . A
C432 H437 0.930 . S
C432 N440 1.344 . A
C433 C434 1.372 . A
C434 C435 1.383 . A
C434 H438 0.930 . S
C435 C436 1.376 . A
C436 H439 0.930 . S
C436 N440 1.332 . A
C441 C442 1.390 . A
C441 H446 0.930 . S
C441 N449 1.344 . A
C442 C443 1.372 . A
C443 C444 1.383 . A
C443 H447 0.930 . S
C444 C445 1.376 . A
C445 H448 0.930 . S
C445 N449 1.332 . A
C450 C451 1.390 . A
C450 H455 0.930 . S
C450 N458 1.344 . A
C451 C452 1.372 . A
C452 C453 1.383 . A
C452 H456 0.930 . S
C453 C454 1.376 . A
C454 H457 0.930 . S
C454 N458 1.332 . A
C459 C460 1.390 . A
C459 H464 0.930 . S
C459 N467 1.344 . A
C460 C461 1.372 . A
C461 C462 1.383 . A
C461 H465 0.930 . S
C462 C463 1.376 . A
C463 H466 0.930 . S
C463 N467 1.332 . A
C468 C469 1.390 . A
C468 H473 0.930 . S
C468 N476 1.344 . A
C469 C470 1.372 . A
C470 C471 1.383 . A
C470 H474 0.930 . S
C471 C472 1.376 . A
C472 H475 0.930 . S
C472 N476 1.332 . A
C477 C478 1.390 . A
C477 H482 0.930 . S
C477 N485 1.344 . A
C478 C479 1.372 . A
C479 C480 1.383 . A
C479 H483 0.930 . S
C480 C481 1.376 . A
C481 H484 0.930 . S
C481 N485 1.332 . A
C486 C487 1.390 . A
C486 H491 0.930 . S
C486 N494 1.344 . A
C487 C488 1.372 . A
C488 C489 1.383 . A
C488 H492 0.930 . S
C489 C490 1.376 . A
C490 H493 0.930 . S
C490 N494 1.332 . A
C495 C496 1.390 . A
C495 H500 0.930 . S
C495 N503 1.344 . A
C496 C497 1.372 . A
C497 C498 1.383 . A
C497 H501 0.930 . S
C498 C499 1.376 . A
C499 H502 0.930 . S
C499 N503 1.332 . A
C504 C505 1.390 . A
C504 H509 0.930 . S
C504 N512 1.344 . A
C505 C506 1.372 . A
C506 C507 1.383 . A
C506 H510 0.930 . S
C507 C508 1.376 . A
C508 H511 0.930 . S
C508 N512 1.332 . A
C513 C514 1.390 . A
C513 H518 0.930 . S
C513 N521 1.344 . A
C514 C515 1.372 . A
C515 C516 1.383 . A
C515 H519 0.930 . S
C516 C517 1.376 . A
C517 H520 0.930 . S
C517 N521 1.332 . A
C522 C523 1.390 . A
C522 H527 0.930 . S
C522 N530 1.344 1_545 A
C523 C524 1.372 1_554 A
C524 C525 1.383 1_545 A
C524 H528 0.930 . S
C525 C526 1.376 1_556 A
C526 H529 0.930 . S
C526 N530 1.332 . A
C531 C532 1.390 . A
C531 H536 0.930 . S
C531 N539 1.344 . A
C532 C533 1.372 . A
C533 C534 1.383 . A
C533 H537 0.930 . S
C534 C535 1.376 . A
C535 H538 0.930 . S
C535 N539 1.332 . A
C540 C541 1.390 . A
C540 H545 0.930 . S
C540 N548 1.344 . A
C541 C542 1.372 . A
C542 C543 1.383 . A
C542 H546 0.930 . S
C543 C544 1.376 . A
C544 H547 0.930 . S
C544 N548 1.332 . A
C549 C550 1.390 . A
C549 H554 0.930 . S
C549 N557 1.344 . A
C550 C551 1.372 . A
C551 C552 1.383 . A
C551 H555 0.930 . S
C552 C553 1.376 . A
C553 H556 0.930 . S
C553 N557 1.332 . A
C558 C559 1.390 . A
C558 H563 0.930 . S
C558 N566 1.344 . A
C559 C560 1.372 . A
C560 C561 1.383 . A
C560 H564 0.930 . S
C561 C562 1.376 . A
C562 H565 0.930 . S
C562 N566 1.332 . A
C567 C568 1.390 . A
C567 H572 0.930 . S
C567 N575 1.344 . A
C568 C569 1.372 . A
C569 C570 1.383 . A
C569 H573 0.930 . S
C570 C571 1.376 . A
C571 H574 0.930 . S
C571 N575 1.332 . A
C576 C577 1.390 . A
C576 H581 0.930 . S
C576 N584 1.344 . A
C577 C578 1.372 . A
C578 C579 1.383 . A
C578 H582 0.930 . S
C579 C580 1.376 . A
C580 H583 0.930 . S
C580 N584 1.332 . A
C585 C586 1.390 . A
C585 H590 0.930 . S
C585 N593 1.344 1_455 A
C586 C587 1.372 1_556 A
C587 C588 1.383 1_455 A
C587 H591 0.930 . S
C588 C589 1.376 . A
C589 H592 0.930 . S
C589 N593 1.332 1_554 A
C594 C595 1.390 . A
C594 H599 0.930 . S
C594 N602 1.344 . A
C595 C596 1.372 1_554 A
C596 C597 1.383 . A
C596 H600 0.930 . S
C597 C598 1.376 1_556 A
C598 H601 0.930 1_554 S
C598 N602 1.332 . A
C603 C604 1.390 . A
C603 H608 0.930 . S
C603 N611 1.344 . A
C604 C605 1.372 . A
C605 C606 1.383 . A
C605 H609 0.930 . S
C606 C607 1.376 . A
C607 H610 0.930 . S
C607 N611 1.332 . A
C612 C613 1.419 . A
C612 H617 0.930 . S
C612 N620 1.344 . A
C613 C614 1.367 1_545 A
C614 C615 1.383 1_565 A
C614 H618 0.930 . S
C615 C616 1.376 . A
C616 H619 0.930 . S
C616 N620 1.332 . A
C621 C622 1.390 . A
C621 H626 0.930 . S
C621 N629 1.344 . A
C622 C623 1.372 1_655 A
C623 C624 1.387 . A
C623 H627 0.930 . S
C624 C625 1.363 1_455 A
C625 H628 0.930 . S
C625 N629 1.332 . A
C630 C631 1.390 . A
C630 H635 0.930 . S
C630 N638 1.344 . A
C631 C632 1.372 . A
C632 C633 1.383 . A
C632 H636 0.930 . S
C633 C634 1.376 . A
C634 H637 0.930 . S
C634 N638 1.332 . A
C639 C640 1.390 . A
C639 H644 0.930 . S
C639 N647 1.344 . A
C640 C641 1.372 . A
C641 C642 1.383 . A
C641 H645 0.930 . S
C642 C643 1.376 . A
C643 H646 0.930 . S
C643 N647 1.332 . A
C648 C649 1.390 . A
C648 H653 0.930 . S
C648 N656 1.344 1_545 A
C649 C650 1.372 . A
C650 C651 1.383 1_545 A
C650 H654 0.930 . S
C651 C652 1.376 . A
C652 H655 0.930 . S
C652 N656 1.332 . A
C657 C658 1.390 . A
C657 H662 0.930 . S
C657 N665 1.344 1_655 A
C658 C659 1.372 . A
C659 C660 1.383 1_655 A
C659 H663 0.930 . S
C660 C661 1.376 . A
C661 H664 0.930 . S
C661 N665 1.332 . A
C666 C667 1.390 . A
C666 H671 0.930 . S
C666 N674 1.344 . A
C667 C668 1.372 . A
C668 C669 1.383 . A
C668 H672 0.930 . S
C669 C670 1.376 . A
C670 H673 0.930 . S
C670 N674 1.332 . A
C675 C676 1.390 . A
C675 H680 0.930 . S
C675 N683 1.344 . A
C676 C677 1.372 . A
C677 C678 1.383 . A
C677 H681 0.930 . S
C678 C679 1.376 . A
C679 H682 0.930 . S
C679 N683 1.332 . A
C684 C685 1.390 . A
C684 H689 0.930 . S
C684 N692 1.344 . A
C685 C686 1.372 . A
C686 C687 1.383 . A
C686 H690 0.930 . S
C687 C688 1.376 . A
C688 H691 0.930 . S
C688 N692 1.332 . A
C693 C694 1.390 . A
C693 H698 0.930 . S
C693 N701 1.344 . A
C694 C695 1.372 . A
C695 C696 1.383 . A
C695 H699 0.930 . S
C696 C697 1.376 . A
C697 H700 0.930 . S
C697 N701 1.332 . A
C702 C703 1.390 . A
C702 H707 0.930 . S
C702 N710 1.344 . A
C703 C704 1.372 . A
C704 C705 1.383 . A
C704 H708 0.930 . S
C705 C706 1.376 . A
C706 H709 0.930 . S
C706 N710 1.332 . A
C711 C712 1.390 . A
C711 H716 0.930 . S
C711 N719 1.344 . A
C712 C713 1.372 . A
C713 C714 1.383 . A
C713 H717 0.930 . S
C714 C715 1.376 . A
C715 H718 0.930 . S
C715 N719 1.332 . A
C720 C721 1.390 . A
C720 H725 0.930 . S
C720 N728 1.344 . A
C721 C722 1.372 . A
C722 C723 1.383 . A
C722 H726 0.930 . S
C723 C724 1.376 . A
C724 H727 0.930 . S
C724 N728 1.332 . A
C729 C730 1.390 . A
C729 H734 0.930 . S
C729 N737 1.344 . A
C730 C731 1.372 . A
C731 C732 1.383 . A
C731 H735 0.930 . S
C732 C733 1.376 . A
C733 H736 0.930 . S
C733 N737 1.332 . A
C738 C739 1.390 . A
C738 H743 0.930 . S
C738 N746 1.344 . A
C739 C740 1.372 . A
C740 C741 1.383 . A
C740 H744 0.930 . S
C741 C742 1.376 . A
C742 H745 0.930 . S
C742 N746 1.332 . A
C747 C748 1.390 . A
C747 H752 0.930 . S
C747 N755 1.344 . A
C748 C749 1.372 . A
C749 C750 1.383 . A
C749 H753 0.930 . S
C750 C751 1.376 . A
C751 H754 0.930 . S
C751 N755 1.332 . A
C756 C757 1.390 . A
C756 H761 0.930 . S
C756 N764 1.344 . A
C757 C758 1.372 . A
C758 C759 1.383 . A
C758 H762 0.930 . S
C759 C760 1.376 . A
C760 H763 0.930 . S
C760 N764 1.332 . A
C361 C215 2.066 . S
C363 C15 2.097 . S
C370 C35 2.062 . S
C372 C95 2.111 . S
C379 C55 1.980 . S
C381 C115 2.103 . S
C388 C72 0.887 . S
C390 C272 1.106 . S
C397 C52 1.058 . S
C399 C92 1.111 . S
C406 C132 0.944 . S
C408 C112 1.190 . S
C415 C152 1.052 . S
C417 C32 1.118 . S
C424 C155 1.966 . S
C426 C135 1.956 . S
C433 C175 2.010 . S
C435 C335 1.991 . S
C442 C355 2.002 . S
C444 C195 1.984 . S
C451 C292 1.154 . S
C453 C232 0.973 . S
C460 C252 1.153 . S
C462 C312 0.906 . S
C469 C235 1.886 . S
C471 C315 2.003 . S
C478 C275 2.064 . S
C480 C255 2.079 . S
C487 C75 2.029 . S
C489 C295 2.013 . S
C496 C192 1.109 . S
C498 C12 0.911 . S
C505 C212 0.844 . S
C507 C332 1.173 . S
C514 C172 1.067 . S
C516 C352 1.102 . S
C523 C306 1.220 . S
C525 C6 1.138 . S
C532 C26 1.258 . S
C534 C206 1.116 . S
C541 C46 1.152 . S
C543 C166 1.194 . S
C550 C66 1.086 . S
C552 C146 1.335 . S
C559 C226 1.168 . S
C561 C86 1.179 . S
C568 C246 1.095 . S
C570 C106 1.330 . S
C577 C126 1.089 . S
C579 C186 1.262 . S
C586 C326 1.254 . S
C588 C266 1.202 . S
C595 C286 1.168 . S
C597 C346 1.178 . S
C604 C208 1.101 . S
C606 C8 1.632 . S
C613 C28 1.581 1_545 S
C615 C88 1.185 . S
C622 C108 1.132 . S
C624 C48 1.652 . S
C631 C276 0.890 . S
C633 C76 0.887 . S
C640 C96 0.914 . S
C642 C56 1.300 . S
C649 C116 1.018 . S
C651 C136 1.321 . S
C658 C156 0.864 . S
C660 C36 1.278 . S
C667 C128 1.140 . S
C669 C148 1.576 . S
C676 C328 1.112 . S
C678 C168 1.643 . S
C685 C188 1.304 . S
C687 C348 1.546 . S
C694 C296 1.226 . S
C696 C236 1.242 . S
C703 C256 1.253 . S
C705 C316 1.205 . S
C712 C228 1.207 . S
C714 C308 1.507 . S
C721 C268 1.103 . S
C723 C248 1.626 . S
C730 C68 1.578 . S
C732 C288 1.238 . S
C739 C16 1.231 . S
C741 C196 0.894 . S
C748 C216 0.952 . S
C750 C336 1.312 . S
C757 C176 0.883 . S
C759 C356 1.288 . S
