# Generated by pormake.
# Topology fnt, (5)-cn, num edge types: 1
# Building blocks:
#     Node 0, Type 0, BuildingBlock: N391, # of connection points: 5
#     Node 1, Type 0, BuildingBlock: N391, # of connection points: 5
#     Node 2, Type 0, BuildingBlock: N391, # of connection points: 5
#     Node 3, Type 0, BuildingBlock: N391, # of connection points: 5
#     Node 4, Type 0, BuildingBlock: N391, # of connection points: 5
#     Node 5, Type 0, BuildingBlock: N391, # of connection points: 5
#     Edge 6, Type (0, 0), BuildingBlock: E98, # of connection points: 2
#     Edge 7, Type (0, 0), BuildingBlock: E98, # of connection points: 2
#     Edge 8, Type (0, 0), BuildingBlock: E98, # of connection points: 2
#     Edge 9, Type (0, 0), BuildingBlock: E98, # of connection points: 2
#     Edge 10, Type (0, 0), BuildingBlock: E98, # of connection points: 2
#     Edge 11, Type (0, 0), BuildingBlock: E98, # of connection points: 2
#     Edge 12, Type (0, 0), BuildingBlock: E98, # of connection points: 2
#     Edge 13, Type (0, 0), BuildingBlock: E98, # of connection points: 2
#     Edge 14, Type (0, 0), BuildingBlock: E98, # of connection points: 2
#     Edge 15, Type (0, 0), BuildingBlock: E98, # of connection points: 2
#     Edge 16, Type (0, 0), BuildingBlock: E98, # of connection points: 2
#     Edge 17, Type (0, 0), BuildingBlock: E98, # of connection points: 2
#     Edge 18, Type (0, 0), BuildingBlock: E98, # of connection points: 2
#     Edge 19, Type (0, 0), BuildingBlock: E98, # of connection points: 2
#     Edge 20, Type (0, 0), BuildingBlock: E98, # of connection points: 2
# Relax obj value: 0.200
# Max RMSD: 0.166
# Mean RMSD: 0.156
data_fnt+N391+E98
_symmetry_space_group_name_H-M    P1
_symmetry_Int_Tables_number       1
_symmetry_cell_setting            triclinic
loop_
_symmetry_equiv_pos_as_xyz
'x, y, z'
_cell_length_a     30.559
_cell_length_b     31.733
_cell_length_c     53.657
_cell_angle_alpha  92.402
_cell_angle_beta   85.014
_cell_angle_gamma  123.758
loop_
_atom_site_label
_atom_site_type_symbol
_atom_site_fract_x
_atom_site_fract_y
_atom_site_fract_z
_atom_type_partial_charge
Cu0 Cu 0.17540 0.29473 0.00174 0.00000
Cu1 Cu 0.08717 0.24058 0.05450 0.00000
Cu2 Cu 0.13022 0.34609 0.03193 0.00000
Cu3 Cu 0.20053 0.40283 0.98267 0.00000
C4 C 0.26792 0.38931 0.01655 0.00000
C5 C 0.10221 0.18433 0.01362 0.00000
O6 O 0.11392 0.39586 0.02704 0.00000
O7 O 0.16400 0.43722 0.99256 0.00000
O8 O 0.19192 0.29281 0.96668 0.00000
O9 O 0.21824 0.37101 0.95456 0.00000
O10 O 0.12987 0.36071 0.06736 0.00000
O11 O 0.09496 0.28291 0.08267 0.00000
C12 C 0.13032 0.42817 0.00988 0.00000
C13 C 0.20653 0.32679 0.95049 0.00000
O14 O 0.25114 0.34455 0.00959 0.00000
O15 O 0.24458 0.41117 0.01436 0.00000
C16 C 0.11697 0.32990 0.08489 0.00000
O17 O 0.14328 0.33847 0.99640 0.00000
O18 O 0.15066 0.29679 0.03661 0.00000
O19 O 0.13512 0.21958 0.99990 0.00000
O20 O 0.07877 0.18752 0.03310 0.00000
Cu21 Cu 0.81690 0.10082 0.36818 0.00000
Cu22 Cu 0.90299 0.13331 0.31461 0.00000
Cu23 Cu 0.86388 0.19787 0.33911 0.00000
Cu24 Cu 0.79605 0.18656 0.38928 0.00000
C25 C 0.72550 0.09824 0.35501 0.00000
C26 C 0.88699 0.06416 0.35434 0.00000
O27 O 0.88260 0.26636 0.34499 0.00000
O28 O 0.83430 0.25921 0.38015 0.00000
O29 O 0.80124 0.08497 0.40314 0.00000
O30 O 0.77779 0.13825 0.41672 0.00000
O31 O 0.86350 0.20957 0.30399 0.00000
O32 O 0.89562 0.16546 0.28725 0.00000
C33 C 0.86771 0.28376 0.36273 0.00000
C34 C 0.78821 0.10588 0.41995 0.00000
O35 O 0.74118 0.07096 0.36113 0.00000
O36 O 0.75023 0.14539 0.35767 0.00000
C37 C 0.87486 0.18997 0.28590 0.00000
O38 O 0.85156 0.17990 0.37444 0.00000
O39 O 0.84096 0.12550 0.33343 0.00000
O40 O 0.85524 0.06682 0.36892 0.00000
O41 O 0.91034 0.09018 0.33498 0.00000
Cu42 Cu 0.85675 0.75411 0.00264 0.00000
Cu43 Cu 0.93382 0.80748 0.05352 0.00000
Cu44 Cu 0.89572 0.70233 0.03070 0.00000
Cu45 Cu 0.83588 0.64634 0.98271 0.00000
C46 C 0.76090 0.65926 0.01908 0.00000
C47 C 0.92740 0.86433 0.01383 0.00000
O48 O 0.91325 0.65268 0.02453 0.00000
O49 O 0.87050 0.61184 0.99094 0.00000
O50 O 0.84772 0.75656 0.96802 0.00000
O51 O 0.82409 0.67856 0.95555 0.00000
O52 O 0.88846 0.68717 0.06602 0.00000
O53 O 0.92002 0.76472 0.08142 0.00000
C54 C 0.90056 0.62065 0.00736 0.00000
C55 C 0.83662 0.72284 0.95174 0.00000
O56 O 0.77914 0.70412 0.01222 0.00000
O57 O 0.78485 0.63746 0.01580 0.00000
C58 C 0.89756 0.71770 0.08365 0.00000
O59 O 0.89025 0.71050 0.99559 0.00000
O60 O 0.87407 0.75152 0.03679 0.00000
O61 O 0.89746 0.82929 0.00010 0.00000
O62 O 0.94674 0.86086 0.03257 0.00000
Cu63 Cu 0.07434 0.81716 0.34464 0.00000
Cu64 Cu 0.10014 0.89418 0.39704 0.00000
Cu65 Cu 0.17199 0.86118 0.37261 0.00000
Cu66 Cu 0.16766 0.80166 0.32328 0.00000
C67 C 0.07216 0.72898 0.35899 0.00000
C68 C 0.03243 0.88136 0.35784 0.00000
O69 O 0.24440 0.88125 0.36608 0.00000
O70 O 0.24221 0.83883 0.33152 0.00000
O71 O 0.06219 0.80549 0.30991 0.00000
O72 O 0.12048 0.78595 0.29630 0.00000
O73 O 0.18011 0.85750 0.40772 0.00000
O74 O 0.13089 0.88518 0.42434 0.00000
C75 C 0.26520 0.86937 0.34840 0.00000
C76 C 0.08653 0.79537 0.29312 0.00000
O77 O 0.04380 0.74381 0.35282 0.00000
O78 O 0.12158 0.75391 0.35574 0.00000
C79 C 0.15703 0.86594 0.42581 0.00000
O80 O 0.15758 0.85266 0.33748 0.00000
O81 O 0.09560 0.83704 0.37900 0.00000
O82 O 0.03772 0.85278 0.34362 0.00000
O83 O 0.05697 0.90217 0.37679 0.00000
Cu84 Cu 0.74080 0.83453 0.69935 0.00000
Cu85 Cu 0.79865 0.91474 0.64721 0.00000
Cu86 Cu 0.68653 0.87227 0.67222 0.00000
Cu87 Cu 0.62546 0.80849 0.72147 0.00000
C88 C 0.64506 0.74239 0.68505 0.00000
C89 C 0.85611 0.90657 0.68579 0.00000
O90 O 0.63258 0.88616 0.67932 0.00000
O91 O 0.58811 0.84064 0.71384 0.00000
O92 O 0.74096 0.82232 0.73393 0.00000
O93 O 0.65797 0.79567 0.74802 0.00000
O94 O 0.67356 0.86872 0.63723 0.00000
O95 O 0.75600 0.90315 0.62021 0.00000
C96 C 0.59763 0.87109 0.69716 0.00000
C97 C 0.70423 0.80878 0.75091 0.00000
O98 O 0.69147 0.76056 0.69097 0.00000
O99 O 0.62070 0.76373 0.68869 0.00000
C100 C 0.70708 0.88041 0.61897 0.00000
O101 O 0.69257 0.86359 0.70718 0.00000
O102 O 0.74015 0.85448 0.66521 0.00000
O103 O 0.81894 0.87553 0.70005 0.00000
O104 O 0.85318 0.92669 0.66707 0.00000
Cu105 Cu 0.28132 0.09132 0.67578 0.00000
Cu106 Cu 0.22601 0.11815 0.72856 0.00000
Cu107 Cu 0.33913 0.18955 0.70399 0.00000
Cu108 Cu 0.39868 0.18331 0.65436 0.00000
C109 C 0.37451 0.09804 0.68969 0.00000
C110 C 0.16668 0.04598 0.68929 0.00000
O111 O 0.39549 0.25974 0.69758 0.00000
O112 O 0.43890 0.25626 0.66281 0.00000
O113 O 0.28070 0.07540 0.64099 0.00000
O114 O 0.36468 0.13360 0.62729 0.00000
O115 O 0.35205 0.20271 0.73909 0.00000
O116 O 0.26906 0.15337 0.75583 0.00000
C117 C 0.43071 0.27917 0.67984 0.00000
C118 C 0.31784 0.09837 0.62415 0.00000
O119 O 0.32782 0.06758 0.68359 0.00000
O120 O 0.40081 0.14521 0.68658 0.00000
C121 C 0.31810 0.18132 0.75721 0.00000
O122 O 0.33266 0.17106 0.66881 0.00000
O123 O 0.28290 0.11570 0.71024 0.00000
O124 O 0.20326 0.05164 0.67492 0.00000
O125 O 0.17071 0.07150 0.70834 0.00000
C126 C 0.10740 0.44903 0.01626 0.00000
C127 C 0.12834 0.50109 0.01638 0.00000
C128 C 0.09541 0.51705 0.02116 0.00000
C129 C 0.04085 0.48300 0.02593 0.00000
C130 C 0.02013 0.43134 0.02495 0.00000
C131 C 0.05319 0.41420 0.02080 0.00000
C132 C 0.10849 0.56869 0.02236 0.00000
C133 C 0.05519 0.56570 0.02519 0.00000
C134 C 0.01298 0.50852 0.03198 0.00000
C135 C 0.04429 0.57976 0.00010 0.00000
C136 C 0.00452 0.59324 0.00883 0.00000
C137 C 0.00734 0.60340 0.03503 0.00000
C138 C 0.05294 0.60102 0.04352 0.00000
C139 C 0.93716 0.61105 0.00899 0.00000
C140 C 0.97102 0.59779 0.99633 0.00000
C141 C 0.93953 0.61908 0.03483 0.00000
C142 C 0.97583 0.61730 0.04845 0.00000
H143 H 0.16443 0.52453 0.01323 0.00000
H144 H 0.98376 0.40804 0.02709 0.00000
H145 H 0.03920 0.37965 0.02104 0.00000
H146 H 0.12917 0.58719 0.00723 0.00000
H147 H 0.12905 0.58612 0.03656 0.00000
H148 H 0.00103 0.50452 0.04955 0.00000
H149 H 0.98279 0.49476 0.02212 0.00000
H150 H 0.07625 0.60848 0.99242 0.00000
H151 H 0.02939 0.55136 0.98903 0.00000
H152 H 0.08588 0.63415 0.04261 0.00000
H153 H 0.04527 0.58785 0.06043 0.00000
H154 H 0.96993 0.59229 0.97916 0.00000
H155 H 0.91629 0.62588 0.04329 0.00000
H156 H 0.97872 0.62493 0.06539 0.00000
C157 C 0.68080 0.07717 0.34314 0.00000
C158 C 0.64541 0.02450 0.34164 0.00000
C159 C 0.59479 0.00506 0.33657 0.00000
C160 C 0.57662 0.03606 0.33283 0.00000
C161 C 0.61148 0.08821 0.33519 0.00000
C162 C 0.66377 0.10899 0.33965 0.00000
C163 C 0.55197 0.95219 0.33404 0.00000
C164 C 0.50012 0.95042 0.33145 0.00000
C165 C 0.52123 0.00721 0.32624 0.00000
C166 C 0.46421 0.93147 0.35585 0.00000
C167 C 0.41041 0.91440 0.34727 0.00000
C168 C 0.41158 0.90726 0.32083 0.00000
C169 C 0.46532 0.91534 0.31225 0.00000
C170 C 0.31981 0.88903 0.34689 0.00000
C171 C 0.36559 0.90475 0.35976 0.00000
C172 C 0.32272 0.88403 0.32085 0.00000
C173 C 0.36785 0.89120 0.30716 0.00000
H174 H 0.65642 0.00303 0.34409 0.00000
H175 H 0.59965 0.10937 0.33375 0.00000
H176 H 0.68727 0.14397 0.34033 0.00000
H177 H 0.54789 0.93290 0.34862 0.00000
H178 H 0.55950 0.93768 0.31934 0.00000
H179 H 0.51937 0.01242 0.30882 0.00000
H180 H 0.50107 0.01747 0.33654 0.00000
H181 H 0.46328 0.90344 0.36307 0.00000
H182 H 0.47576 0.95844 0.36803 0.00000
H183 H 0.46312 0.88364 0.31223 0.00000
H184 H 0.47786 0.93053 0.29571 0.00000
H185 H 0.36434 0.90827 0.37706 0.00000
H186 H 0.29377 0.87564 0.31231 0.00000
H187 H 0.36855 0.88557 0.29004 0.00000
C188 C 0.33093 0.42022 0.02723 0.00000
C189 C 0.36657 0.40863 0.01664 0.00000
C190 C 0.41715 0.43608 0.02323 0.00000
C191 C 0.43505 0.47594 0.04031 0.00000
C192 C 0.39994 0.48834 0.05010 0.00000
C193 C 0.34769 0.45990 0.04418 0.00000
C194 C 0.46019 0.43048 0.01476 0.00000
C195 C 0.51188 0.47599 0.02559 0.00000
C196 C 0.49046 0.49877 0.04578 0.00000
C197 C 0.54773 0.51541 0.00505 0.00000
C198 C 0.60146 0.54483 0.01596 0.00000
C199 C 0.60042 0.51486 0.03543 0.00000
C200 C 0.54684 0.46316 0.03578 0.00000
C201 C 0.69192 0.60936 0.02374 0.00000
C202 C 0.64616 0.59016 0.01019 0.00000
C203 C 0.68911 0.57988 0.04328 0.00000
C204 C 0.64413 0.53116 0.04915 0.00000
H205 H 0.35574 0.38240 0.00521 0.00000
H206 H 0.41159 0.51597 0.06072 0.00000
H207 H 0.32402 0.46732 0.05148 0.00000
H208 H 0.46436 0.43091 0.99662 0.00000
H209 H 0.45283 0.39851 0.02071 0.00000
H210 H 0.49231 0.48979 0.06249 0.00000
H211 H 0.51045 0.53538 0.04430 0.00000
H212 H 0.54883 0.49918 0.98950 0.00000
H213 H 0.53600 0.53748 0.00209 0.00000
H214 H 0.54925 0.43881 0.02526 0.00000
H215 H 0.53428 0.44959 0.05263 0.00000
H216 H 0.64734 0.60926 0.99716 0.00000
H217 H 0.71804 0.59297 0.05272 0.00000
H218 H 0.64351 0.51097 0.06141 0.00000
C219 C 0.04526 0.68111 0.37003 0.00000
C220 C 0.99512 0.64373 0.36252 0.00000
C221 C 0.97404 0.59438 0.36822 0.00000
C222 C 0.00010 0.57947 0.38137 0.00000
C223 C 0.05144 0.61659 0.38802 0.00000
C224 C 0.07314 0.66739 0.38302 0.00000
C225 C 0.92308 0.54991 0.36246 0.00000
C226 C 0.92133 0.50180 0.37034 0.00000
C227 C 0.96966 0.52446 0.38670 0.00000
C228 C 0.92824 0.47513 0.34724 0.00000
C229 C 0.90623 0.42200 0.35713 0.00000
C230 C 0.87403 0.41410 0.37968 0.00000
C231 C 0.87104 0.46098 0.38344 0.00000
C232 C 0.88583 0.33724 0.36161 0.00000
C233 C 0.91105 0.38431 0.34833 0.00000
C234 C 0.85601 0.33126 0.38411 0.00000
C235 C 0.84764 0.36861 0.39336 0.00000
H236 H 0.97642 0.65258 0.35372 0.00000
H237 H 0.07086 0.60729 0.39590 0.00000
H238 H 0.10613 0.69211 0.38831 0.00000
H239 H 0.91878 0.54904 0.34470 0.00000
H240 H 0.89478 0.55082 0.37161 0.00000
H241 H 0.95805 0.51776 0.40430 0.00000
H242 H 0.99026 0.51029 0.38201 0.00000
H243 H 0.90839 0.47403 0.33379 0.00000
H244 H 0.96515 0.49188 0.34129 0.00000
H245 H 0.84081 0.45612 0.37593 0.00000
H246 H 0.86914 0.46854 0.40103 0.00000
H247 H 0.93104 0.38893 0.33336 0.00000
H248 H 0.84115 0.30149 0.39325 0.00000
H249 H 0.82584 0.36336 0.40772 0.00000
C250 C 0.57872 0.91125 0.70009 0.00000
C251 C 0.59339 0.95312 0.68526 0.00000
C252 C 0.57173 0.98015 0.69118 0.00000
C253 C 0.53487 0.96741 0.71170 0.00000
C254 C 0.51916 0.92479 0.72583 0.00000
C255 C 0.54188 0.89747 0.72056 0.00000
C256 C 0.58138 0.02462 0.67861 0.00000
C257 C 0.54110 0.03677 0.69106 0.00000
C258 C 0.51865 0.00339 0.71547 0.00000
C259 C 0.49673 0.02105 0.67390 0.00000
C260 C 0.47452 0.05176 0.68397 0.00000
C261 C 0.51286 0.09247 0.69848 0.00000
C262 C 0.56281 0.09115 0.69604 0.00000
C263 C 0.41763 0.08202 0.69290 0.00000
C264 C 0.42891 0.04747 0.68107 0.00000
C265 C 0.45521 0.12049 0.70770 0.00000
C266 C 0.50456 0.12802 0.71024 0.00000
H267 H 0.61772 0.96236 0.67150 0.00000
H268 H 0.49317 0.91449 0.73895 0.00000
H269 H 0.53251 0.87011 0.73063 0.00000
H270 H 0.57644 0.01799 0.66091 0.00000
H271 H 0.61733 0.05322 0.68040 0.00000
H272 H 0.53346 0.02405 0.73008 0.00000
H273 H 0.48053 0.98544 0.71755 0.00000
H274 H 0.51049 0.02981 0.65658 0.00000
H275 H 0.46997 0.98495 0.67519 0.00000
H276 H 0.58711 0.11241 0.68228 0.00000
H277 H 0.58077 0.10196 0.71134 0.00000
H278 H 0.40437 0.02167 0.67117 0.00000
H279 H 0.44728 0.14187 0.71616 0.00000
H280 H 0.53016 0.15505 0.71919 0.00000
C281 C 0.61809 0.68692 0.67306 0.00000
C282 C 0.64299 0.66100 0.67404 0.00000
C283 C 0.61584 0.61070 0.66881 0.00000
C284 C 0.56341 0.58365 0.66251 0.00000
C285 C 0.53838 0.60924 0.66240 0.00000
C286 C 0.56581 0.66093 0.66698 0.00000
C287 C 0.63381 0.57676 0.66857 0.00000
C288 C 0.58482 0.52142 0.66462 0.00000
C289 C 0.54252 0.53020 0.65626 0.00000
C290 C 0.56517 0.49079 0.68918 0.00000
C291 C 0.53295 0.43607 0.68021 0.00000
C292 C 0.54811 0.43530 0.65434 0.00000
C293 C 0.59430 0.48965 0.64680 0.00000
C294 C 0.47171 0.34507 0.67891 0.00000
C295 C 0.49653 0.39214 0.69202 0.00000
C296 C 0.48608 0.34573 0.65336 0.00000
C297 C 0.52588 0.39038 0.64053 0.00000
H298 H 0.67777 0.67803 0.67822 0.00000
H299 H 0.50291 0.59155 0.65923 0.00000
H300 H 0.54934 0.67810 0.66601 0.00000
H301 H 0.64839 0.57884 0.68428 0.00000
H302 H 0.66104 0.58609 0.65509 0.00000
H303 H 0.53864 0.52461 0.63849 0.00000
H304 H 0.50853 0.50774 0.66527 0.00000
H305 H 0.59446 0.49724 0.69820 0.00000
H306 H 0.54334 0.49863 0.69987 0.00000
H307 H 0.62809 0.49458 0.64881 0.00000
H308 H 0.59322 0.49727 0.62965 0.00000
H309 H 0.48743 0.39239 0.70900 0.00000
H310 H 0.46870 0.31554 0.64456 0.00000
H311 H 0.53678 0.39006 0.62384 0.00000
C312 C 0.12059 0.19968 0.01568 0.00000
C313 C 0.06592 0.16960 0.01365 0.00000
C314 C 0.03847 0.11939 0.01932 0.00000
C315 C 0.06313 0.09648 0.02710 0.00000
C316 C 0.11766 0.12621 0.02825 0.00000
C317 C 0.14629 0.17788 0.02323 0.00000
C318 C 0.98211 0.08158 0.01868 0.00000
C319 C 0.97217 0.02835 0.02373 0.00000
C320 C 0.02553 0.04228 0.03356 0.00000
C321 C 0.96133 0.99772 0.99990 0.00000
C322 C 0.93398 0.94343 0.00900 0.00000
C323 C 0.91477 0.94136 0.03446 0.00000
C324 C 0.92549 0.99400 0.04102 0.00000
C325 C 0.89781 0.85376 0.01148 0.00000
C326 C 0.92488 0.90070 0.99794 0.00000
C327 C 0.88105 0.85329 0.03665 0.00000
C328 C 0.88729 0.89644 0.04863 0.00000
H329 H 0.04856 0.18383 0.00849 0.00000
H330 H 0.13511 0.11134 0.03242 0.00000
H331 H 0.18245 0.19780 0.02490 0.00000
H332 H 0.97056 0.08200 0.00247 0.00000
H333 H 0.96253 0.08873 0.03141 0.00000
H334 H 0.02177 0.03704 0.05147 0.00000
H335 H 0.03731 0.02203 0.02542 0.00000
H336 H 0.93851 0.00128 0.98951 0.00000
H337 H 0.99391 0.00818 0.98950 0.00000
H338 H 0.89561 0.99557 0.03795 0.00000
H339 H 0.93342 0.00241 0.05833 0.00000
H340 H 0.93631 0.90169 0.98120 0.00000
H341 H 0.86518 0.82335 0.04576 0.00000
H342 H 0.87391 0.89516 0.06502 0.00000
C343 C 0.01847 0.86394 0.34918 0.00000
C344 C 0.96494 0.84641 0.35024 0.00000
C345 C 0.95121 0.87903 0.34523 0.00000
C346 C 0.98901 0.92997 0.33906 0.00000
C347 C 0.04210 0.94751 0.33886 0.00000
C348 C 0.05702 0.91453 0.34323 0.00000
C349 C 0.89864 0.86904 0.34509 0.00000
C350 C 0.90519 0.92120 0.34138 0.00000
C351 C 0.96540 0.95786 0.33302 0.00000
C352 C 0.89124 0.93902 0.36606 0.00000
C353 C 0.88052 0.97741 0.35732 0.00000
C354 C 0.87077 0.96882 0.33145 0.00000
C355 C 0.87038 0.92120 0.32368 0.00000
C356 C 0.86709 0.04555 0.35639 0.00000
C357 C 0.87787 0.01412 0.36932 0.00000
C358 C 0.85949 0.03735 0.33084 0.00000
C359 C 0.85922 0.99777 0.31782 0.00000
H360 H 0.93902 0.81278 0.35434 0.00000
H361 H 0.06787 0.98168 0.33578 0.00000
H362 H 0.09256 0.92617 0.34220 0.00000
H363 H 0.87840 0.85337 0.36078 0.00000
H364 H 0.88017 0.84621 0.33157 0.00000
H365 H 0.97059 0.96517 0.31527 0.00000
H366 H 0.98093 0.98944 0.34213 0.00000
H367 H 0.86019 0.91105 0.37505 0.00000
H368 H 0.92040 0.95484 0.37674 0.00000
H369 H 0.83500 0.89077 0.32565 0.00000
H370 H 0.88446 0.92383 0.30651 0.00000
H371 H 0.88304 0.01906 0.38630 0.00000
H372 H 0.85439 0.05884 0.32217 0.00000
H373 H 0.85178 0.99122 0.30113 0.00000
C374 C 0.82847 0.87782 0.69131 0.00000
C375 C 0.86057 0.86815 0.67525 0.00000
C376 C 0.91080 0.88711 0.68081 0.00000
C377 C 0.93179 0.91631 0.70216 0.00000
C378 C 0.90029 0.92719 0.71756 0.00000
C379 C 0.84837 0.90702 0.71263 0.00000
C380 C 0.95046 0.88158 0.66702 0.00000
C381 C 0.00375 0.91645 0.67977 0.00000
C382 C 0.98601 0.93068 0.70527 0.00000
C383 C 0.04224 0.96424 0.66388 0.00000
C384 C 0.09556 0.98247 0.67349 0.00000
C385 C 0.09065 0.94124 0.68622 0.00000
C386 C 0.03462 0.89403 0.68297 0.00000
C387 C 0.18729 0.03432 0.68256 0.00000
C388 C 0.14267 0.02712 0.67149 0.00000
C389 C 0.18079 0.99373 0.69565 0.00000
C390 C 0.13302 0.94560 0.69713 0.00000
H391 H 0.84765 0.84894 0.66092 0.00000
H392 H 0.91415 0.94819 0.73130 0.00000
H393 H 0.82701 0.91301 0.72349 0.00000
H394 H 0.95480 0.89167 0.64969 0.00000
H395 H 0.93973 0.84649 0.66746 0.00000
H396 H 0.98632 0.91204 0.71901 0.00000
H397 H 0.00897 0.96667 0.70845 0.00000
H398 H 0.04171 0.95624 0.64621 0.00000
H399 H 0.03395 0.98959 0.66653 0.00000
H400 H 0.03425 0.87484 0.66834 0.00000
H401 H 0.02096 0.87217 0.69760 0.00000
H402 H 0.14629 0.05370 0.66273 0.00000
H403 H 0.20910 0.99876 0.70364 0.00000
H404 H 0.12981 0.91828 0.70491 0.00000
C405 C 0.88261 0.19504 0.25689 0.00000
C406 C 0.87134 0.20795 0.23476 0.00000
C407 C 0.90205 0.21523 0.21336 0.00000
C408 C 0.94497 0.21040 0.21268 0.00000
C409 C 0.95700 0.19927 0.23489 0.00000
C410 C 0.92528 0.19025 0.25682 0.00000
C411 C 0.89739 0.22840 0.18853 0.00000
C412 C 0.94690 0.23879 0.17139 0.00000
C413 C 0.97109 0.21726 0.18729 0.00000
C414 C 0.98645 0.29591 0.16661 0.00000
C415 C 0.01971 0.29744 0.14330 0.00000
C416 C 0.99117 0.24927 0.13138 0.00000
C417 C 0.93639 0.21720 0.14581 0.00000
C418 C 0.08991 0.32547 0.11049 0.00000
C419 C 0.06709 0.33430 0.13285 0.00000
C420 C 0.06179 0.27734 0.09971 0.00000
C421 C 0.01096 0.23845 0.10925 0.00000
H422 H 0.84312 0.21148 0.23470 0.00000
H423 H 0.98660 0.19786 0.23505 0.00000
H424 H 0.93251 0.18109 0.27138 0.00000
H425 H 0.89622 0.25837 0.18930 0.00000
H426 H 0.86520 0.20075 0.18182 0.00000
H427 H 0.96369 0.18525 0.18067 0.00000
H428 H 0.00897 0.24091 0.18750 0.00000
H429 H 0.96848 0.31233 0.16353 0.00000
H430 H 0.00804 0.31216 0.18061 0.00000
H431 H 0.91074 0.22106 0.13864 0.00000
H432 H 0.92373 0.18163 0.14596 0.00000
H433 H 0.08525 0.36606 0.14027 0.00000
H434 H 0.07726 0.27086 0.08572 0.00000
H435 H 0.99164 0.20738 0.10131 0.00000
C436 C 0.69516 0.89423 0.59343 0.00000
C437 C 0.72011 0.94677 0.59115 0.00000
C438 C 0.71783 0.96637 0.56965 0.00000
C439 C 0.69134 0.93565 0.54951 0.00000
C440 C 0.66818 0.88371 0.55158 0.00000
C441 C 0.66873 0.86270 0.57364 0.00000
C442 C 0.74038 0.01913 0.56336 0.00000
C443 C 0.73216 0.02149 0.53505 0.00000
C444 C 0.69139 0.96450 0.52858 0.00000
C445 C 0.78424 0.04289 0.51879 0.00000
C446 C 0.77395 0.05989 0.49505 0.00000
C447 C 0.73035 0.06467 0.50064 0.00000
C448 C 0.71484 0.05510 0.52899 0.00000
C449 C 0.78009 0.08639 0.45258 0.00000
C450 C 0.79826 0.07122 0.47185 0.00000
C451 C 0.73614 0.08905 0.45840 0.00000
C452 C 0.71115 0.08008 0.48271 0.00000
H453 H 0.73807 0.96805 0.60422 0.00000
H454 H 0.65217 0.86283 0.53804 0.00000
H455 H 0.65157 0.82778 0.57518 0.00000
H456 H 0.77771 0.03954 0.56605 0.00000
H457 H 0.72292 0.03212 0.57383 0.00000
H458 H 0.65663 0.95788 0.52750 0.00000
H459 H 0.70225 0.95556 0.51285 0.00000
H460 H 0.81362 0.07127 0.52687 0.00000
H461 H 0.79156 0.01707 0.51516 0.00000
H462 H 0.73313 0.08650 0.53827 0.00000
H463 H 0.67711 0.03845 0.53261 0.00000
H464 H 0.82740 0.06923 0.46830 0.00000
H465 H 0.72302 0.09708 0.44574 0.00000
H466 H 0.68349 0.08417 0.48663 0.00000
C467 C 0.83136 0.73268 0.91942 0.00000
C468 C 0.79203 0.69750 0.90417 0.00000
C469 C 0.78959 0.71227 0.88121 0.00000
C470 C 0.82517 0.76185 0.87225 0.00000
C471 C 0.86298 0.79700 0.88783 0.00000
C472 C 0.86717 0.78240 0.91107 0.00000
C473 C 0.75265 0.68233 0.86244 0.00000
C474 C 0.76286 0.71935 0.84079 0.00000
C475 C 0.81712 0.76890 0.84639 0.00000
C476 C 0.71918 0.72968 0.84195 0.00000
C477 C 0.72404 0.74895 0.81561 0.00000
C478 C 0.75274 0.73407 0.79943 0.00000
C479 C 0.76274 0.70066 0.81490 0.00000
C480 C 0.71648 0.78833 0.78009 0.00000
C481 C 0.70597 0.77451 0.80601 0.00000
C482 C 0.74627 0.77473 0.76486 0.00000
C483 C 0.76366 0.74575 0.77380 0.00000
H484 H 0.76783 0.66434 0.90967 0.00000
H485 H 0.88569 0.83064 0.88263 0.00000
H486 H 0.89372 0.80569 0.92100 0.00000
H487 H 0.71663 0.66584 0.86975 0.00000
H488 H 0.75808 0.65640 0.85596 0.00000
H489 H 0.84531 0.77277 0.83483 0.00000
H490 H 0.81579 0.79855 0.84518 0.00000
H491 H 0.68468 0.69895 0.84576 0.00000
H492 H 0.72515 0.75513 0.85438 0.00000
H493 H 0.73483 0.66507 0.81364 0.00000
H494 H 0.79635 0.70545 0.80958 0.00000
H495 H 0.68626 0.78326 0.81639 0.00000
H496 H 0.75483 0.78520 0.74823 0.00000
H497 H 0.78136 0.73499 0.76328 0.00000
C498 C 0.91838 0.72074 0.11027 0.00000
C499 C 0.94436 0.76709 0.12289 0.00000
C500 C 0.97421 0.77353 0.14186 0.00000
C501 C 0.97980 0.73512 0.14932 0.00000
C502 C 0.95246 0.68864 0.13727 0.00000
C503 C 0.92295 0.68168 0.11738 0.00000
C504 C 0.00451 0.81807 0.15724 0.00000
C505 C 0.02588 0.80310 0.17849 0.00000
C506 C 0.01621 0.75115 0.16934 0.00000
C507 C 0.99458 0.79645 0.20369 0.00000
C508 C 0.03157 0.80126 0.22262 0.00000
C509 C 0.08357 0.82552 0.21056 0.00000
C510 C 0.08155 0.84095 0.18398 0.00000
C511 C 0.06615 0.79715 0.26064 0.00000
C512 C 0.02370 0.78837 0.24696 0.00000
C513 C 0.11631 0.81941 0.24808 0.00000
C514 C 0.12697 0.83587 0.22301 0.00000
H515 H 0.94125 0.79321 0.11834 0.00000
H516 H 0.95397 0.66195 0.14260 0.00000
H517 H 0.90631 0.65109 0.10886 0.00000
H518 H 0.98228 0.82908 0.16448 0.00000
H519 H 0.03373 0.84564 0.14715 0.00000
H520 H 0.04898 0.75526 0.16291 0.00000
H521 H 0.00010 0.72643 0.18285 0.00000
H522 H 0.98752 0.82267 0.20608 0.00000
H523 H 0.96142 0.76348 0.20494 0.00000
H524 H 0.08962 0.87513 0.18369 0.00000
H525 H 0.10588 0.83867 0.17209 0.00000
H526 H 0.99011 0.77359 0.25501 0.00000
H527 H 0.14358 0.82350 0.25663 0.00000
H528 H 0.16089 0.85267 0.21518 0.00000
C529 C 0.20837 0.29879 0.92521 0.00000
C530 C 0.18643 0.28626 0.90201 0.00000
C531 C 0.19858 0.26041 0.88516 0.00000
C532 C 0.23265 0.24591 0.89019 0.00000
C533 C 0.25568 0.25998 0.91291 0.00000
C534 C 0.24267 0.28512 0.93069 0.00000
C535 C 0.18029 0.24342 0.86030 0.00000
C536 C 0.21172 0.22141 0.84751 0.00000
C537 C 0.23810 0.21588 0.86986 0.00000
C538 C 0.25400 0.25847 0.82768 0.00000
C539 C 0.26565 0.22460 0.81151 0.00000
C540 C 0.22282 0.17311 0.81588 0.00000
C541 C 0.18027 0.17350 0.83346 0.00000
C542 C 0.30724 0.19513 0.78198 0.00000
C543 C 0.30593 0.23491 0.79480 0.00000
C544 C 0.26557 0.14495 0.78729 0.00000
C545 C 0.22134 0.13246 0.80366 0.00000
H546 H 0.16375 0.29550 0.89817 0.00000
H547 H 0.28005 0.25247 0.91623 0.00000
H548 H 0.25680 0.29281 0.94617 0.00000
H549 H 0.18658 0.27158 0.85052 0.00000
H550 H 0.14269 0.21746 0.86148 0.00000
H551 H 0.22016 0.18072 0.87487 0.00000
H552 H 0.27499 0.22919 0.86536 0.00000
H553 H 0.24062 0.27347 0.81794 0.00000
H554 H 0.28537 0.28525 0.83530 0.00000
H555 H 0.15482 0.17393 0.82404 0.00000
H556 H 0.16189 0.14440 0.84463 0.00000
H557 H 0.33331 0.26847 0.79150 0.00000
H558 H 0.26718 0.11893 0.77972 0.00000
H559 H 0.19280 0.09914 0.80619 0.00000
C560 C 0.28730 0.06341 0.59906 0.00000
C561 C 0.25585 0.06512 0.58214 0.00000
C562 C 0.23200 0.02739 0.56519 0.00000
C563 C 0.23795 0.98666 0.56399 0.00000
C564 C 0.27066 0.98611 0.58027 0.00000
C565 C 0.29421 0.02348 0.59822 0.00000
C566 C 0.19778 0.02143 0.54620 0.00000
C567 C 0.18671 0.97502 0.52953 0.00000
C568 C 0.20637 0.94870 0.54512 0.00000
C569 C 0.21845 0.99299 0.50400 0.00000
C570 C 0.18900 0.94588 0.48784 0.00000
C571 C 0.13746 0.91231 0.49973 0.00000
C572 C 0.13135 0.93976 0.52287 0.00000
C573 C 0.16664 0.88517 0.45446 0.00000
C574 C 0.20246 0.93275 0.46576 0.00000
C575 C 0.11707 0.85232 0.46698 0.00000
C576 C 0.10027 0.86552 0.48946 0.00000
H577 H 0.25130 0.09178 0.58250 0.00000
H578 H 0.27682 0.96044 0.57913 0.00000
H579 H 0.31451 0.02188 0.60960 0.00000
H580 H 0.21482 0.05194 0.53602 0.00000
H581 H 0.16487 0.01534 0.55404 0.00000
H582 H 0.17683 0.91801 0.55310 0.00000
H583 H 0.22788 0.94036 0.53456 0.00000
H584 H 0.21823 0.02086 0.49739 0.00000
H585 H 0.25470 0.00347 0.50514 0.00000
H586 H 0.11604 0.95819 0.51879 0.00000
H587 H 0.10968 0.91612 0.53640 0.00000
H588 H 0.23557 0.95503 0.45769 0.00000
H589 H 0.09442 0.82063 0.46019 0.00000
H590 H 0.06642 0.84438 0.49703 0.00000
loop_
_geom_bond_atom_site_label_1
_geom_bond_atom_site_label_2
_geom_bond_distance
_geom_bond_site_symmetry_2
_ccdc_geom_bond_type
Cu0 O8 1.912 1_554 S
Cu0 O14 2.020 . S
Cu0 O17 2.138 1_554 S
Cu0 O18 1.968 . S
Cu0 O19 1.988 1_554 S
Cu1 O11 1.919 . S
Cu1 O18 1.960 . S
Cu1 O20 1.905 . S
Cu2 O6 1.935 . S
Cu2 O10 1.938 . S
Cu2 O17 1.946 1_554 S
Cu2 O18 2.012 . S
Cu3 O7 1.980 . S
Cu3 O9 1.981 . S
Cu3 O15 2.176 1_556 S
Cu3 O17 1.925 . S
C4 O14 1.265 . A
C4 O15 1.255 . A
C5 O19 1.222 1_554 A
C5 O20 1.248 . A
O6 C12 1.256 . A
O7 C12 1.238 1_556 A
O8 C13 1.262 . A
O9 C13 1.255 . A
O10 C16 1.257 . A
O11 C16 1.255 . A
Cu21 O29 1.912 . S
Cu21 O35 2.020 . S
Cu21 O38 2.138 . S
Cu21 O39 1.968 . S
Cu21 O40 1.989 . S
Cu22 O32 1.919 . S
Cu22 O39 1.960 . S
Cu22 O41 1.905 . S
Cu23 O27 1.935 . S
Cu23 O31 1.938 . S
Cu23 O38 1.946 . S
Cu23 O39 2.012 . S
Cu24 O28 1.980 . S
Cu24 O30 1.981 . S
Cu24 O36 2.176 . S
Cu24 O38 1.925 . S
C25 O35 1.265 . A
C25 O36 1.255 . A
C26 O40 1.231 . A
C26 O41 1.248 . A
O27 C33 1.256 . A
O28 C33 1.238 . A
O29 C34 1.262 . A
O30 C34 1.255 . A
O31 C37 1.257 . A
O32 C37 1.255 . A
Cu42 O50 1.912 1_554 S
Cu42 O56 2.020 . S
Cu42 O59 2.138 1_554 S
Cu42 O60 1.968 . S
Cu42 O61 1.989 . S
Cu43 O53 1.919 . S
Cu43 O60 1.960 . S
Cu43 O62 1.905 . S
Cu44 O48 1.935 . S
Cu44 O52 1.938 . S
Cu44 O59 1.946 1_554 S
Cu44 O60 2.012 . S
Cu45 O49 1.980 . S
Cu45 O51 1.981 . S
Cu45 O57 2.176 1_556 S
Cu45 O59 1.925 . S
C46 O56 1.265 . A
C46 O57 1.255 . A
C47 O61 1.238 . A
C47 O62 1.248 . A
O48 C54 1.256 . A
O49 C54 1.238 1_556 A
O50 C55 1.262 . A
O51 C55 1.255 . A
O52 C58 1.257 . A
O53 C58 1.255 . A
Cu63 O71 1.912 . S
Cu63 O77 2.020 . S
Cu63 O80 2.138 . S
Cu63 O81 1.968 . S
Cu63 O82 1.989 . S
Cu64 O74 1.919 . S
Cu64 O81 1.960 . S
Cu64 O83 1.905 . S
Cu65 O69 1.935 . S
Cu65 O73 1.938 . S
Cu65 O80 1.946 . S
Cu65 O81 2.012 . S
Cu66 O70 1.980 . S
Cu66 O72 1.981 . S
Cu66 O78 2.176 . S
Cu66 O80 1.925 . S
C67 O77 1.265 . A
C67 O78 1.255 . A
C68 O82 1.231 . A
C68 O83 1.248 . A
O69 C75 1.256 . A
O70 C75 1.238 . A
O71 C76 1.262 . A
O72 C76 1.255 . A
O73 C79 1.257 . A
O74 C79 1.255 . A
Cu84 O92 1.912 . S
Cu84 O98 2.020 . S
Cu84 O101 2.138 . S
Cu84 O102 1.968 . S
Cu84 O103 1.989 . S
Cu85 O95 1.919 . S
Cu85 O102 1.960 . S
Cu85 O104 1.905 . S
Cu86 O90 1.935 . S
Cu86 O94 1.938 . S
Cu86 O101 1.946 . S
Cu86 O102 2.012 . S
Cu87 O91 1.980 . S
Cu87 O93 1.981 . S
Cu87 O99 2.176 . S
Cu87 O101 1.925 . S
C88 O98 1.265 . A
C88 O99 1.255 . A
C89 O103 1.231 . A
C89 O104 1.248 . A
O90 C96 1.256 . A
O91 C96 1.238 . A
O92 C97 1.262 . A
O93 C97 1.255 . A
O94 C100 1.257 . A
O95 C100 1.255 . A
Cu105 O113 1.912 . S
Cu105 O119 2.020 . S
Cu105 O122 2.138 . S
Cu105 O123 1.968 . S
Cu105 O124 1.989 . S
Cu106 O116 1.919 . S
Cu106 O123 1.960 . S
Cu106 O125 1.905 . S
Cu107 O111 1.935 . S
Cu107 O115 1.938 . S
Cu107 O122 1.946 . S
Cu107 O123 2.012 . S
Cu108 O112 1.980 . S
Cu108 O114 1.981 . S
Cu108 O120 2.176 . S
Cu108 O122 1.925 . S
C109 O119 1.265 . A
C109 O120 1.255 . A
C110 O124 1.231 . A
C110 O125 1.248 . A
O111 C117 1.256 . A
O112 C117 1.238 . A
O113 C118 1.262 . A
O114 C118 1.255 . A
O115 C121 1.257 . A
O116 C121 1.255 . A
C126 C127 1.401 . A
C126 C131 1.394 . A
C127 C128 1.359 . A
C127 H143 0.930 . S
C128 C129 1.400 . A
C128 C132 1.455 . S
C129 C130 1.391 . A
C129 C134 1.477 . S
C130 C131 1.388 . A
C130 H144 0.931 1_455 S
C131 H145 0.930 . S
C132 C133 1.572 . S
C132 H146 0.970 . S
C132 H147 0.971 . S
C133 C134 1.569 . S
C133 C135 1.554 . S
C133 C138 1.487 . S
C134 H148 0.968 . S
C134 H149 0.969 1_455 S
C135 C136 1.530 . S
C135 H150 0.963 1_554 S
C135 H151 0.958 1_554 S
C136 C137 1.428 . A
C136 C140 1.346 1_454 A
C137 C138 1.544 . S
C137 C142 1.402 1_455 A
C138 H152 0.970 . S
C138 H153 0.969 . S
C139 C140 1.431 1_554 A
C139 C141 1.400 . A
C140 H154 0.930 . S
C141 C142 1.408 . A
C141 H155 0.929 . S
C142 H156 0.929 . S
C157 C158 1.401 . A
C157 C162 1.394 . A
C158 C159 1.359 . A
C158 H174 0.930 . S
C159 C160 1.400 . A
C159 C163 1.455 1_545 S
C160 C161 1.391 . A
C160 C165 1.477 . S
C161 C162 1.388 . A
C161 H175 0.931 . S
C162 H176 0.930 . S
C163 C164 1.572 . S
C163 H177 0.970 . S
C163 H178 0.971 . S
C164 C165 1.569 1_565 S
C164 C166 1.537 . S
C164 C169 1.487 . S
C165 H179 0.968 . S
C165 H180 0.969 . S
C166 C167 1.526 . S
C166 H181 0.970 . S
C166 H182 0.971 . S
C167 C168 1.428 . A
C167 C171 1.346 . A
C168 C169 1.544 . S
C168 C173 1.402 . A
C169 H183 0.970 . S
C169 H184 0.969 . S
C170 C171 1.431 . A
C170 C172 1.400 . A
C171 H185 0.930 . S
C172 C173 1.408 . A
C172 H186 0.929 . S
C173 H187 0.929 . S
C188 C189 1.401 . A
C188 C193 1.394 . A
C189 C190 1.359 . A
C189 H205 0.930 . S
C190 C191 1.400 . A
C190 C194 1.455 . S
C191 C192 1.391 . A
C191 C196 1.477 . S
C192 C193 1.388 . A
C192 H206 0.931 . S
C193 H207 0.930 . S
C194 C195 1.572 . S
C194 H208 0.970 1_554 S
C194 H209 0.971 . S
C195 C196 1.569 . S
C195 C197 1.537 . S
C195 C200 1.487 . S
C196 H210 0.968 . S
C196 H211 0.969 . S
C197 C198 1.526 . S
C197 H212 0.970 1_554 S
C197 H213 0.971 . S
C198 C199 1.428 . A
C198 C202 1.346 . A
C199 C200 1.544 . S
C199 C204 1.402 . A
C200 H214 0.970 . S
C200 H215 0.969 . S
C201 C202 1.431 . A
C201 C203 1.400 . A
C202 H216 0.930 1_554 S
C203 C204 1.408 . A
C203 H217 0.929 . S
C204 H218 0.929 . S
C219 C220 1.401 1_455 A
C219 C224 1.394 . A
C220 C221 1.359 . A
C220 H236 0.930 . S
C221 C222 1.378 1_655 A
C221 C225 1.455 . S
C222 C223 1.409 . A
C222 C227 1.478 1_455 S
C223 C224 1.388 . A
C223 H237 0.931 . S
C224 H238 0.930 . S
C225 C226 1.572 . S
C225 H239 0.970 . S
C225 H240 0.971 . S
C226 C227 1.569 . S
C226 C228 1.537 . S
C226 C231 1.487 . S
C227 H241 0.968 . S
C227 H242 0.969 . S
C228 C229 1.526 . S
C228 H243 0.970 . S
C228 H244 0.971 . S
C229 C230 1.428 . A
C229 C233 1.346 . A
C230 C231 1.544 . S
C230 C235 1.402 . A
C231 H245 0.970 . S
C231 H246 0.969 . S
C232 C233 1.431 . A
C232 C234 1.400 . A
C233 H247 0.930 . S
C234 C235 1.408 . A
C234 H248 0.929 . S
C235 H249 0.929 . S
C250 C251 1.401 . A
C250 C255 1.394 . A
C251 C252 1.359 . A
C251 H267 0.930 . S
C252 C253 1.400 . A
C252 C256 1.455 1_565 S
C253 C254 1.391 . A
C253 C258 1.477 1_565 S
C254 C255 1.388 . A
C254 H268 0.931 . S
C255 H269 0.930 . S
C256 C257 1.572 . S
C256 H270 0.970 . S
C256 H271 0.971 . S
C257 C258 1.569 . S
C257 C259 1.537 . S
C257 C262 1.487 . S
C258 H272 0.968 . S
C258 H273 0.969 1_545 S
C259 C260 1.526 . S
C259 H274 0.970 . S
C259 H275 0.971 1_545 S
C260 C261 1.428 . A
C260 C264 1.346 . A
C261 C262 1.544 . S
C261 C266 1.402 . A
C262 H276 0.970 . S
C262 H277 0.969 . S
C263 C264 1.431 . A
C263 C265 1.400 . A
C264 H278 0.930 . S
C265 C266 1.408 . A
C265 H279 0.929 . S
C266 H280 0.929 . S
C281 C282 1.401 . A
C281 C286 1.394 . A
C282 C283 1.359 . A
C282 H298 0.930 . S
C283 C284 1.400 . A
C283 C287 1.455 . S
C284 C285 1.391 . A
C284 C289 1.477 . S
C285 C286 1.388 . A
C285 H299 0.931 . S
C286 H300 0.930 . S
C287 C288 1.572 . S
C287 H301 0.970 . S
C287 H302 0.971 . S
C288 C289 1.569 . S
C288 C290 1.537 . S
C288 C293 1.487 . S
C289 H303 0.968 . S
C289 H304 0.969 . S
C290 C291 1.526 . S
C290 H305 0.970 . S
C290 H306 0.971 . S
C291 C292 1.428 . A
C291 C295 1.346 . A
C292 C293 1.544 . S
C292 C297 1.402 . A
C293 H307 0.970 . S
C293 H308 0.969 . S
C294 C295 1.431 . A
C294 C296 1.400 . A
C295 H309 0.930 . S
C296 C297 1.408 . A
C296 H310 0.929 . S
C297 H311 0.929 . S
C312 C313 1.401 . A
C312 C317 1.394 . A
C313 C314 1.359 . A
C313 H329 0.930 . S
C314 C315 1.400 . A
C314 C318 1.455 1_455 S
C315 C316 1.391 . A
C315 C320 1.477 . S
C316 C317 1.388 . A
C316 H330 0.931 . S
C317 H331 0.930 . S
C318 C319 1.572 . S
C318 H332 0.970 . S
C318 H333 0.971 . S
C319 C320 1.569 1_655 S
C319 C321 1.517 1_544 S
C319 C324 1.487 1_545 S
C320 H334 0.968 . S
C320 H335 0.969 . S
C321 C322 1.518 1_556 S
C321 H336 0.985 1_565 S
C321 H337 0.982 1_565 S
C322 C323 1.428 . A
C322 C326 1.346 1_554 A
C323 C324 1.544 . S
C323 C328 1.402 . A
C324 H338 0.970 . S
C324 H339 0.969 1_565 S
C325 C326 1.431 1_554 A
C325 C327 1.400 . A
C326 H340 0.930 . S
C327 C328 1.408 . A
C327 H341 0.929 . S
C328 H342 0.929 . S
C343 C344 1.401 1_455 A
C343 C348 1.394 . A
C344 C345 1.359 . A
C344 H360 0.930 . S
C345 C346 1.400 . A
C345 C349 1.455 . S
C346 C347 1.391 1_655 A
C346 C351 1.477 . S
C347 C348 1.388 . A
C347 H361 0.931 . S
C348 H362 0.930 . S
C349 C350 1.572 . S
C349 H363 0.970 . S
C349 H364 0.971 . S
C350 C351 1.569 . S
C350 C352 1.537 . S
C350 C355 1.487 . S
C351 H365 0.968 . S
C351 H366 0.969 . S
C352 C353 1.526 . S
C352 H367 0.970 . S
C352 H368 0.971 . S
C353 C354 1.428 . A
C353 C357 1.346 1_565 A
C354 C355 1.544 . S
C354 C359 1.402 . A
C355 H369 0.970 . S
C355 H370 0.969 . S
C356 C357 1.431 . A
C356 C358 1.400 . A
C357 H371 0.930 . S
C358 C359 1.408 1_545 A
C358 H372 0.929 . S
C359 H373 0.929 . S
C374 C375 1.401 . A
C374 C379 1.394 . A
C375 C376 1.359 . A
C375 H391 0.930 . S
C376 C377 1.400 . A
C376 C380 1.455 . S
C377 C378 1.391 . A
C377 C382 1.477 . S
C378 C379 1.388 . A
C378 H392 0.931 . S
C379 H393 0.930 . S
C380 C381 1.572 1_655 S
C380 H394 0.970 . S
C380 H395 0.971 . S
C381 C382 1.569 1_455 S
C381 C383 1.537 . S
C381 C386 1.487 . S
C382 H396 0.968 . S
C382 H397 0.969 1_655 S
C383 C384 1.526 . S
C383 H398 0.970 . S
C383 H399 0.971 . S
C384 C385 1.428 . A
C384 C388 1.346 1_565 A
C385 C386 1.544 . S
C385 C390 1.402 . A
C386 H400 0.970 . S
C386 H401 0.969 . S
C387 C388 1.431 . A
C387 C389 1.400 1_545 A
C388 H402 0.930 . S
C389 C390 1.408 . A
C389 H403 0.929 . S
C390 H404 0.929 . S
C405 C406 1.401 . A
C405 C410 1.394 . A
C406 C407 1.359 . A
C406 H422 0.930 . S
C407 C408 1.400 . A
C407 C411 1.455 . S
C408 C409 1.391 . A
C408 C413 1.477 . S
C409 C410 1.388 . A
C409 H423 0.931 . S
C410 H424 0.930 . S
C411 C412 1.572 . S
C411 H425 0.970 . S
C411 H426 0.971 . S
C412 C413 1.569 . S
C412 C414 1.537 . S
C412 C417 1.487 . S
C413 H427 0.968 . S
C413 H428 0.969 1_655 S
C414 C415 1.526 1_655 S
C414 H429 0.970 . S
C414 H430 0.971 1_655 S
C415 C416 1.428 1_455 A
C415 C419 1.346 . A
C416 C417 1.544 . S
C416 C421 1.402 1_655 A
C417 H431 0.970 . S
C417 H432 0.969 . S
C418 C419 1.431 . A
C418 C420 1.400 . A
C419 H433 0.930 . S
C420 C421 1.408 . A
C420 H434 0.929 . S
C421 H435 0.929 1_455 S
C436 C437 1.401 . A
C436 C441 1.394 . A
C437 C438 1.359 . A
C437 H453 0.930 . S
C438 C439 1.400 . A
C438 C442 1.455 1_565 S
C439 C440 1.391 . A
C439 C444 1.477 . S
C440 C441 1.388 . A
C440 H454 0.931 . S
C441 H455 0.930 . S
C442 C443 1.572 . S
C442 H456 0.970 . S
C442 H457 0.971 . S
C443 C444 1.569 1_545 S
C443 C445 1.537 . S
C443 C448 1.487 . S
C444 H458 0.968 . S
C444 H459 0.969 . S
C445 C446 1.526 . S
C445 H460 0.970 . S
C445 H461 0.971 . S
C446 C447 1.428 . A
C446 C450 1.346 . A
C447 C448 1.544 . S
C447 C452 1.402 . A
C448 H462 0.970 . S
C448 H463 0.969 . S
C449 C450 1.431 . A
C449 C451 1.400 . A
C450 H464 0.930 . S
C451 C452 1.408 . A
C451 H465 0.929 . S
C452 H466 0.929 . S
C467 C468 1.401 . A
C467 C472 1.394 . A
C468 C469 1.359 . A
C468 H484 0.930 . S
C469 C470 1.400 . A
C469 C473 1.455 . S
C470 C471 1.391 . A
C470 C475 1.477 . S
C471 C472 1.388 . A
C471 H485 0.931 . S
C472 H486 0.930 . S
C473 C474 1.572 . S
C473 H487 0.970 . S
C473 H488 0.971 . S
C474 C475 1.569 . S
C474 C476 1.537 . S
C474 C479 1.487 . S
C475 H489 0.968 . S
C475 H490 0.969 . S
C476 C477 1.526 . S
C476 H491 0.970 . S
C476 H492 0.971 . S
C477 C478 1.428 . A
C477 C481 1.346 . A
C478 C479 1.544 . S
C478 C483 1.402 . A
C479 H493 0.970 . S
C479 H494 0.969 . S
C480 C481 1.431 . A
C480 C482 1.400 . A
C481 H495 0.930 . S
C482 C483 1.408 . A
C482 H496 0.929 . S
C483 H497 0.929 . S
C498 C499 1.401 . A
C498 C503 1.394 . A
C499 C500 1.359 . A
C499 H515 0.930 . S
C500 C501 1.400 . A
C500 C504 1.455 1_655 S
C501 C502 1.391 . A
C501 C506 1.477 1_655 S
C502 C503 1.388 . A
C502 H516 0.931 . S
C503 H517 0.930 . S
C504 C505 1.572 . S
C504 H518 0.970 1_455 S
C504 H519 0.971 . S
C505 C506 1.569 . S
C505 C507 1.537 1_455 S
C505 C510 1.487 . S
C506 H520 0.968 . S
C506 H521 0.969 . S
C507 C508 1.526 1_655 S
C507 H522 0.970 . S
C507 H523 0.971 . S
C508 C509 1.428 . A
C508 C512 1.346 . A
C509 C510 1.544 . S
C509 C514 1.402 . A
C510 H524 0.970 . S
C510 H525 0.969 . S
C511 C512 1.431 . A
C511 C513 1.400 . A
C512 H526 0.930 1_455 S
C513 C514 1.408 . A
C513 H527 0.929 . S
C514 H528 0.929 . S
C529 C530 1.401 . A
C529 C534 1.394 . A
C530 C531 1.359 . A
C530 H546 0.930 . S
C531 C532 1.400 . A
C531 C535 1.455 . S
C532 C533 1.391 . A
C532 C537 1.477 . S
C533 C534 1.388 . A
C533 H547 0.931 . S
C534 H548 0.930 . S
C535 C536 1.572 . S
C535 H549 0.970 . S
C535 H550 0.971 . S
C536 C537 1.569 . S
C536 C538 1.537 . S
C536 C541 1.487 . S
C537 H551 0.968 . S
C537 H552 0.969 . S
C538 C539 1.526 . S
C538 H553 0.970 . S
C538 H554 0.971 . S
C539 C540 1.428 . A
C539 C543 1.346 . A
C540 C541 1.544 . S
C540 C545 1.402 . A
C541 H555 0.970 . S
C541 H556 0.969 . S
C542 C543 1.431 . A
C542 C544 1.400 . A
C543 H557 0.930 . S
C544 C545 1.408 . A
C544 H558 0.929 . S
C545 H559 0.929 . S
C560 C561 1.401 . A
C560 C565 1.394 . A
C561 C562 1.359 . A
C561 H577 0.930 . S
C562 C563 1.400 1_545 A
C562 C566 1.455 . S
C563 C564 1.391 . A
C563 C568 1.477 . S
C564 C565 1.388 1_565 A
C564 H578 0.931 . S
C565 H579 0.930 . S
C566 C567 1.572 1_545 S
C566 H580 0.970 . S
C566 H581 0.971 . S
C567 C568 1.569 . S
C567 C569 1.537 . S
C567 C572 1.487 . S
C568 H582 0.968 . S
C568 H583 0.969 . S
C569 C570 1.526 . S
C569 H584 0.970 1_565 S
C569 H585 0.971 1_565 S
C570 C571 1.428 . A
C570 C574 1.346 . A
C571 C572 1.544 . S
C571 C576 1.402 . A
C572 H586 0.970 . S
C572 H587 0.969 . S
C573 C574 1.431 . A
C573 C575 1.400 . A
C574 H588 0.930 . S
C575 C576 1.408 . A
C575 H589 0.929 . S
C576 H590 0.929 . S
C126 C12 1.225 . S
C139 C54 1.323 . S
C157 C25 1.349 . S
C170 C75 1.416 . S
C188 C4 1.745 . S
C201 C46 1.801 . S
C219 C67 1.392 . S
C232 C33 1.466 . S
C250 C96 1.664 . S
C263 C109 1.678 . S
C281 C88 1.605 . S
C294 C117 1.741 . S
C312 C5 0.517 . S
C325 C47 0.791 . S
C343 C68 0.674 . S
C356 C26 0.570 . S
C374 C89 0.870 . S
C387 C110 0.934 . S
C405 C37 1.556 . S
C418 C16 1.510 . S
C436 C100 1.587 . S
C449 C34 1.832 . S
C467 C55 1.811 . S
C480 C97 1.863 . S
C498 C58 1.592 . S
C511 C76 1.914 . S
C529 C13 1.605 . S
C542 C121 1.451 . S
C560 C118 1.690 . S
C573 C79 1.620 . S
