# Generated by pormake.
# Topology fst, (5)-cn, num edge types: 1
# Building blocks:
#     Node 0, Type 0, BuildingBlock: N383, # of connection points: 5
#     Node 1, Type 0, BuildingBlock: N383, # of connection points: 5
#     Node 2, Type 0, BuildingBlock: N383, # of connection points: 5
#     Node 3, Type 0, BuildingBlock: N383, # of connection points: 5
#     Node 4, Type 0, BuildingBlock: N383, # of connection points: 5
#     Node 5, Type 0, BuildingBlock: N383, # of connection points: 5
#     Node 6, Type 0, BuildingBlock: N383, # of connection points: 5
#     Node 7, Type 0, BuildingBlock: N383, # of connection points: 5
#     Node 8, Type 0, BuildingBlock: N383, # of connection points: 5
#     Node 9, Type 0, BuildingBlock: N383, # of connection points: 5
#     Node 10, Type 0, BuildingBlock: N383, # of connection points: 5
#     Node 11, Type 0, BuildingBlock: N383, # of connection points: 5
#     Edge 12, Type (0, 0), BuildingBlock: E184, # of connection points: 2
#     Edge 13, Type (0, 0), BuildingBlock: E184, # of connection points: 2
#     Edge 14, Type (0, 0), BuildingBlock: E184, # of connection points: 2
#     Edge 15, Type (0, 0), BuildingBlock: E184, # of connection points: 2
#     Edge 16, Type (0, 0), BuildingBlock: E184, # of connection points: 2
#     Edge 17, Type (0, 0), BuildingBlock: E184, # of connection points: 2
#     Edge 18, Type (0, 0), BuildingBlock: E184, # of connection points: 2
#     Edge 19, Type (0, 0), BuildingBlock: E184, # of connection points: 2
#     Edge 20, Type (0, 0), BuildingBlock: E184, # of connection points: 2
#     Edge 21, Type (0, 0), BuildingBlock: E184, # of connection points: 2
#     Edge 22, Type (0, 0), BuildingBlock: E184, # of connection points: 2
#     Edge 23, Type (0, 0), BuildingBlock: E184, # of connection points: 2
#     Edge 24, Type (0, 0), BuildingBlock: E184, # of connection points: 2
#     Edge 25, Type (0, 0), BuildingBlock: E184, # of connection points: 2
#     Edge 26, Type (0, 0), BuildingBlock: E184, # of connection points: 2
#     Edge 27, Type (0, 0), BuildingBlock: E184, # of connection points: 2
#     Edge 28, Type (0, 0), BuildingBlock: E184, # of connection points: 2
#     Edge 29, Type (0, 0), BuildingBlock: E184, # of connection points: 2
#     Edge 30, Type (0, 0), BuildingBlock: E184, # of connection points: 2
#     Edge 31, Type (0, 0), BuildingBlock: E184, # of connection points: 2
#     Edge 32, Type (0, 0), BuildingBlock: E184, # of connection points: 2
#     Edge 33, Type (0, 0), BuildingBlock: E184, # of connection points: 2
#     Edge 34, Type (0, 0), BuildingBlock: E184, # of connection points: 2
#     Edge 35, Type (0, 0), BuildingBlock: E184, # of connection points: 2
#     Edge 36, Type (0, 0), BuildingBlock: E184, # of connection points: 2
#     Edge 37, Type (0, 0), BuildingBlock: E184, # of connection points: 2
#     Edge 38, Type (0, 0), BuildingBlock: E184, # of connection points: 2
#     Edge 39, Type (0, 0), BuildingBlock: E184, # of connection points: 2
#     Edge 40, Type (0, 0), BuildingBlock: E184, # of connection points: 2
#     Edge 41, Type (0, 0), BuildingBlock: E184, # of connection points: 2
# Relax obj value: 0.090
# Max RMSD: 0.127
# Mean RMSD: 0.127
data_fst+N383+E184
_symmetry_space_group_name_H-M    P1
_symmetry_Int_Tables_number       1
_symmetry_cell_setting            triclinic
loop_
_symmetry_equiv_pos_as_xyz
'x, y, z'
_cell_length_a     46.478
_cell_length_b     46.477
_cell_length_c     14.156
_cell_angle_alpha  90.000
_cell_angle_beta   90.000
_cell_angle_gamma  119.999
loop_
_atom_site_label
_atom_site_type_symbol
_atom_site_fract_x
_atom_site_fract_y
_atom_site_fract_z
_atom_type_partial_charge
Zn0 Zn 0.32438 0.44715 0.92769 0.00000
Zn1 Zn 0.33681 0.45346 0.16749 0.00000
O2 O 0.36254 0.48667 0.96450 0.00000
O3 O 0.37021 0.49776 0.13306 0.00000
O4 O 0.29571 0.44480 0.12847 0.00000
O5 O 0.28212 0.44215 0.96356 0.00000
C6 C 0.27272 0.44369 0.05749 0.00000
H7 H 0.37586 0.45874 0.79449 0.00000
O8 O 0.33148 0.43852 0.29565 0.00000
O9 O 0.32132 0.48400 0.32377 0.00000
C10 C 0.37981 0.50910 0.03935 0.00000
C11 C 0.32131 0.45487 0.35482 0.00000
C12 C 0.34721 0.40722 0.03861 0.00000
C13 C 0.34182 0.45562 0.71280 0.00000
O14 O 0.33135 0.41186 0.96006 0.00000
O15 O 0.35280 0.42634 0.11877 0.00000
O16 O 0.32341 0.45040 0.79266 0.00000
O17 O 0.37438 0.45979 0.73703 0.00000
H18 H 0.31523 0.48168 0.26852 0.00000
Zn19 Zn 0.87723 0.32442 0.92769 0.00000
Zn20 Zn 0.88335 0.33685 0.16748 0.00000
O21 O 0.87587 0.36258 0.96450 0.00000
O22 O 0.87246 0.37026 0.13305 0.00000
O23 O 0.85092 0.29576 0.12847 0.00000
O24 O 0.83998 0.28217 0.96356 0.00000
C25 C 0.82904 0.27277 0.05748 0.00000
H26 H 0.91712 0.37591 0.79449 0.00000
O27 O 0.89296 0.33153 0.29565 0.00000
O28 O 0.83733 0.32137 0.32377 0.00000
C29 C 0.87071 0.37986 0.03935 0.00000
C30 C 0.86645 0.32136 0.35481 0.00000
C31 C 0.94000 0.34726 0.03861 0.00000
C32 C 0.88620 0.34186 0.71280 0.00000
O33 O 0.91949 0.33140 0.96005 0.00000
O34 O 0.92647 0.35285 0.11876 0.00000
O35 O 0.87301 0.32345 0.79266 0.00000
O36 O 0.91459 0.37443 0.73702 0.00000
H37 H 0.83356 0.31528 0.26852 0.00000
Zn38 Zn 0.87724 0.55286 0.16583 0.00000
Zn39 Zn 0.88335 0.54655 0.92604 0.00000
O40 O 0.87587 0.51334 0.12902 0.00000
O41 O 0.87246 0.50225 0.96046 0.00000
O42 O 0.85092 0.55521 0.96505 0.00000
O43 O 0.83998 0.55786 0.12996 0.00000
C44 C 0.82904 0.55632 0.03604 0.00000
H45 H 0.91713 0.54127 0.29903 0.00000
O46 O 0.89296 0.56149 0.79787 0.00000
O47 O 0.83733 0.51601 0.76975 0.00000
C48 C 0.87072 0.49091 0.05417 0.00000
C49 C 0.86646 0.54514 0.73871 0.00000
C50 C 0.94000 0.59279 0.05491 0.00000
C51 C 0.88621 0.54439 0.38072 0.00000
O52 O 0.91949 0.58815 0.13346 0.00000
O53 O 0.92647 0.57367 0.97475 0.00000
O54 O 0.87301 0.54961 0.30086 0.00000
O55 O 0.91460 0.54022 0.35650 0.00000
H56 H 0.83356 0.51833 0.82500 0.00000
Zn57 Zn 0.32442 0.87723 0.16584 0.00000
Zn58 Zn 0.33685 0.88335 0.92605 0.00000
O59 O 0.36258 0.87586 0.12903 0.00000
O60 O 0.37025 0.87245 0.96048 0.00000
O61 O 0.29575 0.85092 0.96507 0.00000
O62 O 0.28216 0.83997 0.12997 0.00000
C63 C 0.27276 0.82904 0.03605 0.00000
H64 H 0.37591 0.91712 0.29904 0.00000
O65 O 0.33152 0.89296 0.79788 0.00000
O66 O 0.32136 0.83732 0.76977 0.00000
C67 C 0.37985 0.87071 0.05419 0.00000
C68 C 0.32136 0.86645 0.73872 0.00000
C69 C 0.34726 0.94000 0.05492 0.00000
C70 C 0.34186 0.88620 0.38073 0.00000
O71 O 0.33139 0.91949 0.13348 0.00000
O72 O 0.35285 0.92647 0.97477 0.00000
O73 O 0.32345 0.87300 0.30088 0.00000
O74 O 0.37442 0.91459 0.35651 0.00000
H75 H 0.31527 0.83355 0.82501 0.00000
Zn76 Zn 0.67561 0.12278 0.16585 0.00000
Zn77 Zn 0.66318 0.11666 0.92605 0.00000
O78 O 0.63745 0.12414 0.12904 0.00000
O79 O 0.62978 0.12755 0.96048 0.00000
O80 O 0.70428 0.14910 0.96507 0.00000
O81 O 0.71787 0.16004 0.12998 0.00000
C82 C 0.72727 0.17097 0.03605 0.00000
H83 H 0.62413 0.08289 0.29905 0.00000
O84 O 0.66851 0.10705 0.79789 0.00000
O85 O 0.67867 0.16269 0.76977 0.00000
C86 C 0.62018 0.12930 0.05419 0.00000
C87 C 0.67868 0.13356 0.73872 0.00000
C88 C 0.65278 0.06001 0.05493 0.00000
C89 C 0.65818 0.11381 0.38074 0.00000
O90 O 0.66864 0.08052 0.13348 0.00000
O91 O 0.64719 0.07354 0.97477 0.00000
O92 O 0.67658 0.12700 0.30088 0.00000
O93 O 0.62561 0.08542 0.35651 0.00000
H94 H 0.68476 0.16645 0.82502 0.00000
Zn95 Zn 0.55281 0.67558 0.16584 0.00000
Zn96 Zn 0.54649 0.66315 0.92605 0.00000
O97 O 0.51328 0.63742 0.12903 0.00000
O98 O 0.50220 0.62975 0.96047 0.00000
O99 O 0.55516 0.70425 0.96506 0.00000
O100 O 0.55781 0.71784 0.12997 0.00000
C101 C 0.55627 0.72724 0.03605 0.00000
H102 H 0.54121 0.62409 0.29904 0.00000
O103 O 0.56143 0.66848 0.79788 0.00000
O104 O 0.51596 0.67864 0.76976 0.00000
C105 C 0.49085 0.62015 0.05418 0.00000
C106 C 0.54509 0.67864 0.73872 0.00000
C107 C 0.59273 0.65274 0.05492 0.00000
C108 C 0.54434 0.65814 0.38073 0.00000
O109 O 0.58809 0.66860 0.13347 0.00000
O110 O 0.57361 0.64715 0.97476 0.00000
O111 O 0.54955 0.67655 0.30087 0.00000
O112 O 0.54016 0.62557 0.35651 0.00000
H113 H 0.51828 0.68473 0.82501 0.00000
Zn114 Zn 0.12277 0.44718 0.16583 0.00000
Zn115 Zn 0.11666 0.45349 0.92604 0.00000
O116 O 0.12414 0.48670 0.12902 0.00000
O117 O 0.12755 0.49779 0.96047 0.00000
O118 O 0.14909 0.44482 0.96506 0.00000
O119 O 0.16003 0.44217 0.12997 0.00000
C120 C 0.17096 0.44371 0.03604 0.00000
H121 H 0.08288 0.45878 0.29903 0.00000
O122 O 0.10705 0.43855 0.79787 0.00000
O123 O 0.16268 0.48403 0.76976 0.00000
C124 C 0.12930 0.50913 0.05417 0.00000
C125 C 0.13355 0.45489 0.73871 0.00000
C126 C 0.06001 0.40725 0.05491 0.00000
C127 C 0.11380 0.45565 0.38072 0.00000
O128 O 0.08051 0.41189 0.13347 0.00000
O129 O 0.07354 0.42637 0.97476 0.00000
O130 O 0.12700 0.45043 0.30087 0.00000
O131 O 0.08541 0.45983 0.35650 0.00000
H132 H 0.16645 0.48170 0.82500 0.00000
Zn133 Zn 0.44715 0.32438 0.16584 0.00000
Zn134 Zn 0.45347 0.33680 0.92604 0.00000
O135 O 0.48668 0.36254 0.12903 0.00000
O136 O 0.49776 0.37021 0.96047 0.00000
O137 O 0.44480 0.29571 0.96506 0.00000
O138 O 0.44216 0.28212 0.12997 0.00000
C139 C 0.44369 0.27272 0.03604 0.00000
H140 H 0.45875 0.37586 0.29904 0.00000
O141 O 0.43853 0.33148 0.79788 0.00000
O142 O 0.48401 0.32132 0.76976 0.00000
C143 C 0.50910 0.37981 0.05418 0.00000
C144 C 0.45487 0.32131 0.73871 0.00000
C145 C 0.40722 0.34721 0.05492 0.00000
C146 C 0.45562 0.34181 0.38073 0.00000
O147 O 0.41187 0.33135 0.13347 0.00000
O148 O 0.42634 0.35280 0.97476 0.00000
O149 O 0.45041 0.32341 0.30087 0.00000
O150 O 0.45980 0.37438 0.35650 0.00000
H151 H 0.48168 0.31523 0.82501 0.00000
Zn152 Zn 0.55285 0.87723 0.92770 0.00000
Zn153 Zn 0.54654 0.88334 0.16749 0.00000
O154 O 0.51333 0.87586 0.96451 0.00000
O155 O 0.50224 0.87246 0.13307 0.00000
O156 O 0.55520 0.85091 0.12848 0.00000
O157 O 0.55785 0.83997 0.96357 0.00000
C158 C 0.55631 0.82903 0.05750 0.00000
H159 H 0.54126 0.91712 0.79450 0.00000
O160 O 0.56147 0.89295 0.29566 0.00000
O161 O 0.51600 0.83732 0.32378 0.00000
C162 C 0.49090 0.87071 0.03936 0.00000
C163 C 0.54513 0.86645 0.35483 0.00000
C164 C 0.59278 0.93999 0.03862 0.00000
C165 C 0.54438 0.88620 0.71281 0.00000
O166 O 0.58813 0.91949 0.96007 0.00000
O167 O 0.57366 0.92646 0.11878 0.00000
O168 O 0.54960 0.87300 0.79267 0.00000
O169 O 0.54021 0.91459 0.73703 0.00000
H170 H 0.51832 0.83355 0.26853 0.00000
Zn171 Zn 0.67558 0.55281 0.92769 0.00000
Zn172 Zn 0.66315 0.54650 0.16748 0.00000
O173 O 0.63743 0.51328 0.96450 0.00000
O174 O 0.62975 0.50220 0.13306 0.00000
O175 O 0.70425 0.55516 0.12847 0.00000
O176 O 0.71784 0.55781 0.96356 0.00000
C177 C 0.72724 0.55628 0.05748 0.00000
H178 H 0.62409 0.54121 0.79449 0.00000
O179 O 0.66848 0.56143 0.29565 0.00000
O180 O 0.67864 0.51596 0.32377 0.00000
C181 C 0.62016 0.49086 0.03935 0.00000
C182 C 0.67865 0.54509 0.35482 0.00000
C183 C 0.65274 0.59274 0.03861 0.00000
C184 C 0.65814 0.54434 0.71280 0.00000
O185 O 0.66860 0.58809 0.96006 0.00000
O186 O 0.64715 0.57361 0.11877 0.00000
O187 O 0.67655 0.54955 0.79266 0.00000
O188 O 0.62558 0.54016 0.73702 0.00000
H189 H 0.68474 0.51828 0.26852 0.00000
Zn190 Zn 0.12278 0.67562 0.92768 0.00000
Zn191 Zn 0.11666 0.66319 0.16748 0.00000
O192 O 0.12414 0.63746 0.96449 0.00000
O193 O 0.12755 0.62978 0.13305 0.00000
O194 O 0.14910 0.70428 0.12846 0.00000
O195 O 0.16004 0.71787 0.96355 0.00000
C196 C 0.17098 0.72727 0.05748 0.00000
H197 H 0.08289 0.62413 0.79448 0.00000
O198 O 0.10705 0.66852 0.29564 0.00000
O199 O 0.16269 0.67867 0.32376 0.00000
C200 C 0.12930 0.62018 0.03934 0.00000
C201 C 0.13356 0.67868 0.35481 0.00000
C202 C 0.06001 0.65278 0.03860 0.00000
C203 C 0.11381 0.65818 0.71280 0.00000
O204 O 0.08052 0.66865 0.96005 0.00000
O205 O 0.07355 0.64719 0.11876 0.00000
O206 O 0.12701 0.67659 0.79265 0.00000
O207 O 0.08542 0.62561 0.73702 0.00000
H208 H 0.16646 0.68476 0.26851 0.00000
Zn209 Zn 0.44718 0.12277 0.92769 0.00000
Zn210 Zn 0.45349 0.11665 0.16749 0.00000
O211 O 0.48670 0.12414 0.96451 0.00000
O212 O 0.49778 0.12755 0.13306 0.00000
O213 O 0.44482 0.14908 0.12847 0.00000
O214 O 0.44217 0.16002 0.96356 0.00000
C215 C 0.44371 0.17096 0.05749 0.00000
H216 H 0.45878 0.08288 0.79450 0.00000
O217 O 0.43855 0.10704 0.29565 0.00000
O218 O 0.48403 0.16268 0.32377 0.00000
C219 C 0.50913 0.12929 0.03935 0.00000
C220 C 0.45489 0.13355 0.35482 0.00000
C221 C 0.40725 0.06000 0.03862 0.00000
C222 C 0.45564 0.11380 0.71281 0.00000
O223 O 0.41189 0.08051 0.96006 0.00000
O224 O 0.42637 0.07353 0.11877 0.00000
O225 O 0.45043 0.12700 0.79266 0.00000
O226 O 0.45982 0.08541 0.73703 0.00000
H227 H 0.48170 0.16645 0.26853 0.00000
C228 C 0.46550 0.57544 0.95905 0.00000
C229 C 0.43436 0.54322 0.94488 0.00000
C230 C 0.49349 0.58852 0.90164 0.00000
C231 C 0.49945 0.57580 0.81860 0.00000
C232 C 0.47859 0.54569 0.77278 0.00000
C233 C 0.44668 0.52102 0.79679 0.00000
C234 C 0.42771 0.52028 0.87199 0.00000
H235 H 0.42117 0.57033 0.13274 0.00000
H236 H 0.51096 0.60887 0.92116 0.00000
H237 H 0.52001 0.58915 0.79031 0.00000
H238 H 0.48736 0.54167 0.71857 0.00000
H239 H 0.43697 0.50272 0.75687 0.00000
H240 H 0.40683 0.50129 0.87513 0.00000
C241 C 0.41361 0.53994 0.02187 0.00000
C242 C 0.42988 0.56674 0.07776 0.00000
C243 C 0.46173 0.58864 0.04255 0.00000
C244 C 0.90286 0.47046 0.99531 0.00000
C245 C 0.90386 0.43921 0.98252 0.00000
C246 C 0.92653 0.50177 0.96337 0.00000
C247 C 0.95589 0.51176 0.91206 0.00000
C248 C 0.96952 0.49247 0.88135 0.00000
C249 C 0.95737 0.45863 0.89256 0.00000
C250 C 0.92871 0.43572 0.93679 0.00000
H251 H 0.83913 0.41667 0.10101 0.00000
H252 H 0.92223 0.51872 0.97815 0.00000
H253 H 0.96790 0.53420 0.89646 0.00000
H254 H 0.98954 0.50397 0.84881 0.00000
H255 H 0.97028 0.45050 0.86683 0.00000
H256 H 0.92517 0.41416 0.93635 0.00000
C257 C 0.87546 0.41425 0.02921 0.00000
C258 C 0.85884 0.42821 0.06716 0.00000
C259 C 0.87507 0.46249 0.04925 0.00000
C260 C 0.43289 0.90350 0.99836 0.00000
C261 C 0.46512 0.90448 0.98565 0.00000
C262 C 0.42554 0.92759 0.96854 0.00000
C263 C 0.44528 0.95748 0.91986 0.00000
C264 C 0.47835 0.97132 0.89037 0.00000
C265 C 0.49987 0.95892 0.90049 0.00000
C266 C 0.49376 0.92975 0.94216 0.00000
H267 H 0.42210 0.83853 0.09834 0.00000
H268 H 0.40424 0.92322 0.98293 0.00000
H269 H 0.43501 0.96973 0.90534 0.00000
H270 H 0.48712 0.99170 0.85962 0.00000
H271 H 0.52106 0.97204 0.87592 0.00000
H272 H 0.51172 0.92612 0.94139 0.00000
C273 C 0.46131 0.87553 0.02980 0.00000
C274 C 0.43052 0.85861 0.06626 0.00000
C275 C 0.41269 0.87515 0.04980 0.00000
C276 C 0.54741 0.11919 0.93242 0.00000
C277 C 0.57954 0.11986 0.94405 0.00000
C278 C 0.52871 0.11135 0.85005 0.00000
C279 C 0.53451 0.10201 0.76084 0.00000
C280 C 0.56156 0.09893 0.73089 0.00000
C281 C 0.58924 0.10386 0.78165 0.00000
C282 C 0.59674 0.11297 0.87452 0.00000
H283 H 0.56795 0.14235 0.14216 0.00000
H284 H 0.50934 0.11242 0.85474 0.00000
H285 H 0.51820 0.09727 0.71564 0.00000
H286 H 0.56087 0.09269 0.66807 0.00000
H287 H 0.60460 0.10056 0.74852 0.00000
H288 H 0.61668 0.11490 0.89484 0.00000
C289 C 0.58969 0.13019 0.03797 0.00000
C290 C 0.56682 0.13555 0.07980 0.00000
C291 C 0.54100 0.12962 0.01726 0.00000
C292 C 0.10329 0.53837 0.13447 0.00000
C293 C 0.10350 0.57029 0.12344 0.00000
C294 C 0.08435 0.51337 0.19880 0.00000
C295 C 0.06122 0.51137 0.26613 0.00000
C296 C 0.05175 0.53489 0.28762 0.00000
C297 C 0.06238 0.56585 0.24735 0.00000
C298 C 0.08495 0.58096 0.17583 0.00000
H299 H 0.15639 0.57599 0.97612 0.00000
H300 H 0.08743 0.49512 0.19690 0.00000
H301 H 0.05084 0.49182 0.30114 0.00000
H302 H 0.03611 0.52889 0.33569 0.00000
H303 H 0.05303 0.57783 0.27196 0.00000
H304 H 0.08855 0.60188 0.15923 0.00000
C305 C 0.12718 0.58805 0.05244 0.00000
C306 C 0.14034 0.56960 0.02308 0.00000
C307 C 0.12678 0.53942 0.07249 0.00000
C308 C 0.53305 0.42647 0.96568 0.00000
C309 C 0.56420 0.45871 0.95182 0.00000
C310 C 0.50410 0.41475 0.91294 0.00000
C311 C 0.49697 0.42913 0.83575 0.00000
C312 C 0.51736 0.45995 0.79280 0.00000
C313 C 0.54981 0.48389 0.81452 0.00000
C314 C 0.56992 0.48301 0.88401 0.00000
H315 H 0.58008 0.42786 0.12700 0.00000
H316 H 0.48679 0.39418 0.93156 0.00000
H317 H 0.47588 0.41650 0.80975 0.00000
H318 H 0.50779 0.46510 0.74260 0.00000
H319 H 0.55905 0.50288 0.77727 0.00000
H320 H 0.59099 0.50176 0.88654 0.00000
C321 C 0.58616 0.46033 0.02330 0.00000
C322 C 0.57056 0.43258 0.07589 0.00000
C323 C 0.53801 0.41164 0.04382 0.00000
C324 C 0.24991 0.45388 0.95239 0.00000
C325 C 0.21841 0.45322 0.92891 0.00000
C326 C 0.27619 0.46200 0.89089 0.00000
C327 C 0.28011 0.47170 0.79563 0.00000
C328 C 0.25774 0.47495 0.73648 0.00000
C329 C 0.22631 0.46988 0.75692 0.00000
C330 C 0.20948 0.46042 0.84112 0.00000
H331 H 0.20845 0.42994 0.13995 0.00000
H332 H 0.29395 0.46087 0.91684 0.00000
H333 H 0.30025 0.47659 0.76820 0.00000
H334 H 0.26499 0.48143 0.67474 0.00000
H335 H 0.21531 0.47334 0.70733 0.00000
H336 H 0.18855 0.45845 0.83969 0.00000
C337 C 0.19894 0.44254 0.01184 0.00000
C338 C 0.21608 0.43697 0.07885 0.00000
C339 C 0.24700 0.44311 0.04475 0.00000
C340 C 0.80194 0.24469 0.94705 0.00000
C341 C 0.77117 0.21303 0.92421 0.00000
C342 C 0.82419 0.26730 0.88214 0.00000
C343 C 0.82344 0.26667 0.78296 0.00000
C344 C 0.80003 0.24220 0.72293 0.00000
C345 C 0.77149 0.21265 0.74582 0.00000
C346 C 0.75921 0.20026 0.83386 0.00000
H347 H 0.77321 0.21312 0.14536 0.00000
H348 H 0.84235 0.28573 0.90844 0.00000
H349 H 0.84083 0.28495 0.75320 0.00000
H350 H 0.80422 0.24634 0.65861 0.00000
H351 H 0.75917 0.19965 0.69512 0.00000
H352 H 0.73957 0.17988 0.83352 0.00000
C353 C 0.75739 0.19797 0.01193 0.00000
C354 C 0.77724 0.21769 0.08121 0.00000
C355 C 0.80488 0.24610 0.04434 0.00000
C356 C 0.74185 0.52236 0.01058 0.00000
C357 C 0.77290 0.52220 0.98651 0.00000
C358 C 0.70972 0.49757 0.98878 0.00000
C359 C 0.69848 0.46715 0.94196 0.00000
C360 C 0.71720 0.45413 0.90246 0.00000
C361 C 0.75144 0.46765 0.90048 0.00000
C362 C 0.77542 0.49734 0.93743 0.00000
H363 H 0.79860 0.59089 0.08653 0.00000
H364 H 0.69309 0.50175 0.00833 0.00000
H365 H 0.67554 0.45391 0.93641 0.00000
H366 H 0.70493 0.43350 0.87346 0.00000
H367 H 0.75906 0.45498 0.87037 0.00000
H368 H 0.79708 0.50171 0.92835 0.00000
C369 C 0.79919 0.55275 0.01968 0.00000
C370 C 0.78616 0.57002 0.05911 0.00000
C371 C 0.75135 0.55252 0.05352 0.00000
C372 C 0.23493 0.78440 0.92774 0.00000
C373 C 0.20404 0.75251 0.94769 0.00000
C374 C 0.25117 0.79414 0.84127 0.00000
C375 C 0.24302 0.77764 0.75386 0.00000
C376 C 0.21634 0.74617 0.73163 0.00000
C377 C 0.19100 0.72350 0.78957 0.00000
C378 C 0.18595 0.72660 0.88361 0.00000
H379 H 0.22267 0.78813 0.14436 0.00000
H380 H 0.27039 0.81480 0.84124 0.00000
H381 H 0.25726 0.78915 0.70414 0.00000
H382 H 0.21549 0.73953 0.66915 0.00000
H383 H 0.17552 0.70377 0.76102 0.00000
H384 H 0.16730 0.70838 0.90924 0.00000
C385 C 0.19760 0.75318 0.04491 0.00000
C386 C 0.22165 0.78190 0.08148 0.00000
C387 C 0.24510 0.80130 0.01257 0.00000
C388 C 0.56355 0.75852 0.14556 0.00000
C389 C 0.56454 0.79025 0.16800 0.00000
C390 C 0.56753 0.73812 0.20966 0.00000
C391 C 0.57280 0.74151 0.30770 0.00000
C392 C 0.57625 0.76724 0.36674 0.00000
C393 C 0.57494 0.79562 0.34393 0.00000
C394 C 0.56981 0.80533 0.25701 0.00000
H395 H 0.55446 0.78404 0.94865 0.00000
H396 H 0.56651 0.71930 0.18363 0.00000
H397 H 0.57419 0.72438 0.33733 0.00000
H398 H 0.57994 0.76496 0.43024 0.00000
H399 H 0.57790 0.80982 0.39384 0.00000
H400 H 0.56983 0.82536 0.25719 0.00000
C401 C 0.56050 0.80261 0.08090 0.00000
C402 C 0.55757 0.78133 0.01223 0.00000
C403 C 0.55984 0.75446 0.04875 0.00000
C404 C 0.47846 0.22545 0.09981 0.00000
C405 C 0.47936 0.25712 0.07707 0.00000
C406 C 0.50410 0.22239 0.13983 0.00000
C407 C 0.53587 0.24699 0.16926 0.00000
C408 C 0.55039 0.28158 0.16355 0.00000
C409 C 0.53707 0.30037 0.12870 0.00000
C410 C 0.50607 0.28937 0.09124 0.00000
H411 H 0.40903 0.20270 0.00664 0.00000
H412 H 0.49951 0.20070 0.14860 0.00000
H413 H 0.54901 0.23926 0.19605 0.00000
H414 H 0.57203 0.29368 0.18639 0.00000
H415 H 0.55090 0.32326 0.13109 0.00000
H416 H 0.50210 0.30621 0.07194 0.00000
C417 C 0.44842 0.24797 0.03486 0.00000
C418 C 0.43044 0.21463 0.03105 0.00000
C419 C 0.44812 0.20009 0.06857 0.00000
C420 C 0.31240 0.41469 0.59417 0.00000
C421 C 0.30251 0.41165 0.49318 0.00000
C422 C 0.30356 0.38857 0.65684 0.00000
C423 C 0.28436 0.35413 0.64227 0.00000
C424 C 0.26823 0.33701 0.55979 0.00000
C425 C 0.26742 0.34956 0.47140 0.00000
C426 C 0.28249 0.38215 0.44338 0.00000
H427 H 0.34385 0.48857 0.52530 0.00000
H428 H 0.31163 0.39485 0.71782 0.00000
H429 H 0.28203 0.34095 0.69441 0.00000
H430 H 0.25639 0.31395 0.56500 0.00000
H431 H 0.25513 0.33390 0.42550 0.00000
H432 H 0.27878 0.38519 0.38051 0.00000
C433 C 0.31625 0.44451 0.45929 0.00000
C434 C 0.33255 0.46554 0.53058 0.00000
C435 C 0.33030 0.44829 0.61415 0.00000
C436 C 0.86945 0.28818 0.50120 0.00000
C437 C 0.87671 0.29687 0.60282 0.00000
C438 C 0.86525 0.25945 0.45821 0.00000
C439 C 0.86621 0.23214 0.49713 0.00000
C440 C 0.87257 0.22717 0.59066 0.00000
C441 C 0.87909 0.24761 0.66876 0.00000
C442 C 0.88081 0.27792 0.67302 0.00000
H443 H 0.87634 0.35875 0.51666 0.00000
H444 H 0.86113 0.25806 0.39372 0.00000
H445 H 0.86210 0.21511 0.45513 0.00000
H446 H 0.87239 0.20735 0.60202 0.00000
H447 H 0.88274 0.23976 0.72521 0.00000
H448 H 0.88550 0.28755 0.73279 0.00000
C449 C 0.87999 0.32861 0.61290 0.00000
C450 C 0.87555 0.33865 0.52782 0.00000
C451 C 0.86960 0.31491 0.45786 0.00000
C452 C 0.86344 0.56982 0.48092 0.00000
C453 C 0.85599 0.57191 0.58200 0.00000
C454 C 0.85694 0.58492 0.40564 0.00000
C455 C 0.84280 0.60548 0.40477 0.00000
C456 C 0.83067 0.61556 0.48086 0.00000
C457 C 0.82988 0.60824 0.57627 0.00000
C458 C 0.84101 0.58919 0.61935 0.00000
H459 H 0.88591 0.52468 0.58505 0.00000
H460 H 0.86290 0.58081 0.34672 0.00000
H461 H 0.84129 0.61343 0.34576 0.00000
H462 H 0.82190 0.62909 0.46520 0.00000
H463 H 0.82066 0.61741 0.61588 0.00000
H464 H 0.83813 0.58744 0.68457 0.00000
C465 C 0.86579 0.55186 0.63160 0.00000
C466 C 0.87771 0.53864 0.56909 0.00000
C467 C 0.87618 0.54860 0.47652 0.00000
C468 C 0.35770 0.90235 0.64076 0.00000
C469 C 0.36744 0.90872 0.53958 0.00000
C470 C 0.37713 0.92037 0.71718 0.00000
C471 C 0.40926 0.94821 0.71939 0.00000
C472 C 0.43065 0.96476 0.64375 0.00000
C473 C 0.42549 0.95822 0.54761 0.00000
C474 C 0.39781 0.93372 0.50322 0.00000
H475 H 0.29651 0.84562 0.53326 0.00000
H476 H 0.36734 0.91287 0.77594 0.00000
H477 H 0.41741 0.95678 0.77910 0.00000
H478 H 0.45122 0.98267 0.66031 0.00000
H479 H 0.44298 0.97222 0.50847 0.00000
H480 H 0.39949 0.93369 0.43771 0.00000
C481 C 0.34045 0.88363 0.48847 0.00000
C482 C 0.31679 0.86384 0.55020 0.00000
C483 C 0.32664 0.87416 0.64364 0.00000
C484 C 0.64477 0.09489 0.63989 0.00000
C485 C 0.63496 0.08838 0.53878 0.00000
C486 C 0.62698 0.07490 0.71575 0.00000
C487 C 0.59686 0.04460 0.71729 0.00000
C488 C 0.57623 0.02684 0.64144 0.00000
C489 C 0.58043 0.03433 0.54568 0.00000
C490 C 0.60615 0.06124 0.50194 0.00000
H491 H 0.70125 0.15678 0.53411 0.00000
H492 H 0.63652 0.08278 0.77458 0.00000
H493 H 0.58965 0.03508 0.77663 0.00000
H494 H 0.55700 0.00724 0.65755 0.00000
H495 H 0.56370 0.01921 0.50631 0.00000
H496 H 0.60413 0.06151 0.43658 0.00000
C497 C 0.65986 0.11577 0.48844 0.00000
C498 C 0.68238 0.13695 0.55056 0.00000
C499 C 0.67373 0.12531 0.64355 0.00000
C500 C 0.53690 0.63120 0.53468 0.00000
C501 C 0.54007 0.63973 0.63681 0.00000
C502 C 0.52988 0.60079 0.49674 0.00000
C503 C 0.52375 0.57137 0.54203 0.00000
C504 C 0.52395 0.56530 0.63888 0.00000
C505 C 0.52979 0.58651 0.71465 0.00000
C506 C 0.53678 0.61889 0.71269 0.00000
H507 H 0.55546 0.70609 0.53715 0.00000
H508 H 0.52907 0.59975 0.43123 0.00000
H509 H 0.51894 0.55356 0.50236 0.00000
H510 H 0.51953 0.54402 0.65462 0.00000
H511 H 0.52883 0.57765 0.77414 0.00000
H512 H 0.53985 0.62870 0.77193 0.00000
C513 C 0.54843 0.67339 0.64110 0.00000
C514 C 0.55046 0.68462 0.55244 0.00000
C515 C 0.54412 0.65978 0.48577 0.00000
C516 C 0.12500 0.42192 0.48531 0.00000
C517 C 0.13232 0.41949 0.58629 0.00000
C518 C 0.12350 0.40098 0.41300 0.00000
C519 C 0.12779 0.37315 0.41574 0.00000
C520 C 0.13562 0.35959 0.49322 0.00000
C521 C 0.14071 0.36984 0.58691 0.00000
C522 C 0.13918 0.39599 0.62647 0.00000
H523 H 0.12451 0.48262 0.58097 0.00000
H524 H 0.11891 0.40618 0.35362 0.00000
H525 H 0.12508 0.36230 0.35841 0.00000
H526 H 0.13770 0.34109 0.47999 0.00000
H527 H 0.14577 0.35741 0.62793 0.00000
H528 H 0.14343 0.39855 0.69108 0.00000
C529 C 0.13232 0.44648 0.63212 0.00000
C530 C 0.12599 0.46381 0.56755 0.00000
C531 C 0.12192 0.44989 0.47715 0.00000
C532 C 0.45925 0.36746 0.53443 0.00000
C533 C 0.45600 0.35883 0.63649 0.00000
C534 C 0.46362 0.39694 0.49629 0.00000
C535 C 0.46648 0.42518 0.54132 0.00000
C536 C 0.46481 0.43063 0.63798 0.00000
C537 C 0.46037 0.40984 0.71380 0.00000
C538 C 0.45657 0.37861 0.71210 0.00000
H539 H 0.44790 0.29495 0.53731 0.00000
H540 H 0.46490 0.39817 0.43084 0.00000
H541 H 0.46992 0.44257 0.50160 0.00000
H542 H 0.46701 0.45109 0.65354 0.00000
H543 H 0.45992 0.41813 0.77313 0.00000
H544 H 0.45392 0.36890 0.77132 0.00000
C545 C 0.45086 0.32624 0.64097 0.00000
C546 C 0.45068 0.31566 0.55245 0.00000
C547 C 0.45518 0.33990 0.48568 0.00000
C548 C 0.55988 0.90879 0.45665 0.00000
C549 C 0.55677 0.91556 0.55766 0.00000
C550 C 0.56901 0.93140 0.38281 0.00000
C551 C 0.57775 0.96503 0.38370 0.00000
C552 C 0.57874 0.98452 0.46044 0.00000
C553 C 0.57179 0.97582 0.55501 0.00000
C554 C 0.56226 0.94567 0.59637 0.00000
H555 H 0.53559 0.84013 0.55663 0.00000
H556 H 0.56944 0.92299 0.32368 0.00000
H557 H 0.58365 0.97576 0.32552 0.00000
H558 H 0.58493 0.00641 0.44596 0.00000
H559 H 0.57388 0.99253 0.59529 0.00000
H560 H 0.55885 0.94513 0.66129 0.00000
C561 C 0.54587 0.88516 0.60542 0.00000
C562 C 0.54235 0.86211 0.54191 0.00000
C563 C 0.55015 0.87546 0.45040 0.00000
C564 C 0.70239 0.57895 0.60748 0.00000
C565 C 0.71216 0.58142 0.50651 0.00000
C566 C 0.72136 0.60051 0.67929 0.00000
C567 C 0.75293 0.62913 0.67594 0.00000
C568 C 0.77411 0.64307 0.59821 0.00000
C569 C 0.76923 0.63252 0.50480 0.00000
C570 C 0.74209 0.60561 0.46584 0.00000
H571 H 0.64252 0.51661 0.51322 0.00000
H572 H 0.71164 0.59519 0.73874 0.00000
H573 H 0.76082 0.64029 0.73299 0.00000
H574 H 0.79432 0.66210 0.61102 0.00000
H575 H 0.78651 0.64530 0.46353 0.00000
H576 H 0.74387 0.60296 0.40132 0.00000
C577 C 0.68575 0.55370 0.46131 0.00000
C578 C 0.66241 0.53593 0.52622 0.00000
C579 C 0.67192 0.55026 0.61627 0.00000
C580 C 0.12728 0.71028 0.49956 0.00000
C581 C 0.11996 0.70150 0.60112 0.00000
C582 C 0.12919 0.73790 0.45542 0.00000
C583 C 0.12541 0.76380 0.49291 0.00000
C584 C 0.11780 0.76807 0.58575 0.00000
C585 C 0.11250 0.74816 0.66444 0.00000
C586 C 0.11352 0.71922 0.67009 0.00000
H587 H 0.12663 0.64264 0.51808 0.00000
H588 H 0.13371 0.73950 0.39115 0.00000
H589 H 0.12833 0.78030 0.45033 0.00000
H590 H 0.11607 0.78692 0.59614 0.00000
H591 H 0.10765 0.75536 0.72024 0.00000
H592 H 0.10921 0.70973 0.73003 0.00000
C593 C 0.11946 0.67107 0.61256 0.00000
C594 C 0.12550 0.66182 0.52829 0.00000
C595 C 0.12986 0.68482 0.45755 0.00000
C596 C 0.48683 0.13135 0.46118 0.00000
C597 C 0.49023 0.12586 0.56306 0.00000
C598 C 0.50988 0.13682 0.39082 0.00000
C599 C 0.54067 0.13811 0.39630 0.00000
C600 C 0.55671 0.13494 0.47607 0.00000
C601 C 0.54618 0.12932 0.56949 0.00000
C602 C 0.51714 0.12540 0.60638 0.00000
H603 H 0.42226 0.12455 0.55327 0.00000
H604 H 0.50398 0.14010 0.33080 0.00000
H605 H 0.55192 0.14154 0.33932 0.00000
H606 H 0.57734 0.13688 0.46481 0.00000
H607 H 0.56062 0.12805 0.61238 0.00000
H608 H 0.51493 0.12182 0.67132 0.00000
C609 C 0.46153 0.12264 0.60731 0.00000
C610 C 0.44259 0.12594 0.54126 0.00000
C611 C 0.45746 0.13179 0.45173 0.00000
C612 C 0.35210 0.33159 0.00919 0.00000
C613 C 0.33289 0.34923 0.00213 0.00000
C614 C 0.34062 0.29856 0.98588 0.00000
C615 C 0.30967 0.27437 0.95009 0.00000
C616 C 0.28165 0.27719 0.93051 0.00000
C617 C 0.27738 0.30456 0.94020 0.00000
C618 C 0.29994 0.33581 0.97149 0.00000
H619 H 0.40112 0.40309 0.08643 0.00000
H620 H 0.35579 0.29137 0.99534 0.00000
H621 H 0.30752 0.25371 0.93782 0.00000
H622 H 0.26329 0.25799 0.90776 0.00000
H623 H 0.25665 0.30130 0.92335 0.00000
H624 H 0.29200 0.35064 0.97252 0.00000
C625 C 0.35416 0.38167 0.03631 0.00000
C626 C 0.38307 0.38398 0.06221 0.00000
C627 C 0.38253 0.35382 0.04812 0.00000
C628 C 0.98344 0.38564 0.95066 0.00000
C629 C 0.02023 0.40498 0.95949 0.00000
C630 C 0.96457 0.39040 0.88293 0.00000
C631 C 0.97459 0.41316 0.80785 0.00000
C632 C 0.00675 0.43790 0.78296 0.00000
C633 C 0.03687 0.44598 0.82505 0.00000
C634 C 0.04237 0.43141 0.90195 0.00000
H635 H 0.99834 0.35557 0.13017 0.00000
H636 H 0.94179 0.37631 0.88802 0.00000
H637 H 0.95758 0.41158 0.76961 0.00000
H638 H 0.00812 0.45072 0.73081 0.00000
H639 H 0.05564 0.46344 0.79765 0.00000
H640 H 0.06461 0.44066 0.91878 0.00000
C641 C 0.02803 0.39216 0.03979 0.00000
C642 C 0.99990 0.36791 0.07706 0.00000
C643 C 0.97188 0.36361 0.02555 0.00000
C644 C 0.98374 0.60308 0.15276 0.00000
C645 C 0.02054 0.62054 0.14447 0.00000
C646 C 0.96507 0.58305 0.22752 0.00000
C647 C 0.97534 0.57473 0.31141 0.00000
C648 C 0.00763 0.58402 0.34067 0.00000
C649 C 0.03764 0.60408 0.29519 0.00000
C650 C 0.04289 0.61984 0.20970 0.00000
H651 H 0.99810 0.63807 0.95481 0.00000
H652 H 0.94224 0.57376 0.22107 0.00000
H653 H 0.95843 0.56123 0.35303 0.00000
H654 H 0.00917 0.57556 0.39886 0.00000
H655 H 0.05653 0.60722 0.32665 0.00000
H656 H 0.06512 0.63218 0.19199 0.00000
C657 C 0.02810 0.63671 0.05595 0.00000
C658 C 0.99990 0.62999 0.01372 0.00000
C659 C 0.97194 0.60916 0.06991 0.00000
C660 C 0.33597 0.97870 0.98225 0.00000
C661 C 0.35348 0.01552 0.97442 0.00000
C662 C 0.30587 0.95659 0.94012 0.00000
C663 C 0.28521 0.96266 0.88098 0.00000
C664 C 0.28937 0.99319 0.85059 0.00000
C665 C 0.31502 0.02511 0.86996 0.00000
C666 C 0.34281 0.03447 0.92403 0.00000
H667 H 0.39907 0.00267 0.11023 0.00000
H668 H 0.29824 0.93434 0.95299 0.00000
H669 H 0.26623 0.94387 0.85914 0.00000
H670 H 0.27255 0.99187 0.81192 0.00000
H671 H 0.31311 0.04228 0.84286 0.00000
H672 H 0.35702 0.05733 0.92791 0.00000
C673 C 0.38218 0.02736 0.03121 0.00000
C674 C 0.38247 0.00115 0.07033 0.00000
C675 C 0.35446 0.97115 0.04332 0.00000
C676 C 0.61025 0.01692 0.13083 0.00000
C677 C 0.59094 0.98014 0.12150 0.00000
C678 C 0.60266 0.03604 0.19009 0.00000
C679 C 0.57644 0.02633 0.25459 0.00000
C680 C 0.55027 0.99432 0.27439 0.00000
C681 C 0.54378 0.96408 0.23652 0.00000
C682 C 0.56172 0.95828 0.16994 0.00000
H683 H 0.64825 0.00136 0.97385 0.00000
H684 H 0.61722 0.05877 0.18659 0.00000
H685 H 0.57647 0.04347 0.28864 0.00000
H686 H 0.53510 0.99317 0.31931 0.00000
H687 H 0.52490 0.94545 0.25914 0.00000
H688 H 0.55300 0.93600 0.15427 0.00000
C689 C 0.60730 0.97205 0.05124 0.00000
C690 C 0.63351 0.00010 0.01994 0.00000
C691 C 0.63579 0.02819 0.06572 0.00000
C692 C 0.62799 0.64407 0.15931 0.00000
C693 C 0.64583 0.62505 0.15295 0.00000
C694 C 0.62527 0.65985 0.23937 0.00000
C695 C 0.63828 0.66238 0.33049 0.00000
C696 C 0.65703 0.64868 0.36524 0.00000
C697 C 0.66789 0.62956 0.31859 0.00000
C698 C 0.66283 0.61946 0.22604 0.00000
H699 H 0.61565 0.61769 0.95062 0.00000
H700 H 0.61295 0.67041 0.23135 0.00000
H701 H 0.63382 0.67479 0.37347 0.00000
H702 H 0.66307 0.65303 0.42858 0.00000
H703 H 0.68013 0.62277 0.35460 0.00000
H704 H 0.67232 0.60671 0.20883 0.00000
C705 C 0.64090 0.61270 0.05967 0.00000
C706 C 0.62208 0.62260 0.01347 0.00000
C707 C 0.61331 0.64130 0.07233 0.00000
loop_
_geom_bond_atom_site_label_1
_geom_bond_atom_site_label_2
_geom_bond_distance
_geom_bond_site_symmetry_2
_ccdc_geom_bond_type
Zn0 O2 1.880 . S
Zn0 O5 1.927 . S
Zn0 O14 1.880 . S
Zn0 O16 1.920 . S
Zn1 O3 1.921 . S
Zn1 O4 1.829 . S
Zn1 O8 1.914 . S
Zn1 O15 1.885 . S
O2 C10 1.420 1_556 A
O3 C10 1.415 . A
O4 C6 1.449 . A
O5 C6 1.413 1_556 A
H7 O17 0.820 . S
O8 C11 1.364 . A
O9 C11 1.424 . A
O9 H18 0.820 . S
C12 O14 1.409 1_554 A
C12 O15 1.383 . A
C13 O16 1.364 . A
C13 O17 1.467 . A
Zn19 O21 1.880 . S
Zn19 O24 1.927 . S
Zn19 O33 1.880 . S
Zn19 O35 1.920 . S
Zn20 O22 1.921 . S
Zn20 O23 1.829 . S
Zn20 O27 1.914 . S
Zn20 O34 1.885 . S
O21 C29 1.420 1_556 A
O22 C29 1.415 . A
O23 C25 1.449 . A
O24 C25 1.413 1_556 A
H26 O36 0.820 . S
O27 C30 1.364 . A
O28 C30 1.424 . A
O28 H37 0.820 . S
C31 O33 1.409 1_554 A
C31 O34 1.383 . A
C32 O35 1.364 . A
C32 O36 1.467 . A
Zn38 O40 1.880 . S
Zn38 O43 1.927 . S
Zn38 O52 1.880 . S
Zn38 O54 1.920 . S
Zn39 O41 1.921 . S
Zn39 O42 1.829 . S
Zn39 O46 1.914 . S
Zn39 O53 1.885 . S
O40 C48 1.420 . A
O41 C48 1.415 1_556 A
O42 C44 1.449 1_556 A
O43 C44 1.413 . A
H45 O55 0.820 . S
O46 C49 1.364 . A
O47 C49 1.424 . A
O47 H56 0.820 . S
C50 O52 1.409 . A
C50 O53 1.383 1_554 A
C51 O54 1.364 . A
C51 O55 1.467 . A
Zn57 O59 1.880 . S
Zn57 O62 1.927 . S
Zn57 O71 1.880 . S
Zn57 O73 1.920 . S
Zn58 O60 1.921 . S
Zn58 O61 1.829 . S
Zn58 O65 1.914 . S
Zn58 O72 1.885 . S
O59 C67 1.420 . A
O60 C67 1.415 1_556 A
O61 C63 1.449 1_556 A
O62 C63 1.413 . A
H64 O74 0.820 . S
O65 C68 1.364 . A
O66 C68 1.424 . A
O66 H75 0.820 . S
C69 O71 1.409 . A
C69 O72 1.383 1_554 A
C70 O73 1.364 . A
C70 O74 1.467 . A
Zn76 O78 1.880 . S
Zn76 O81 1.927 . S
Zn76 O90 1.880 . S
Zn76 O92 1.920 . S
Zn77 O79 1.921 . S
Zn77 O80 1.829 . S
Zn77 O84 1.914 . S
Zn77 O91 1.885 . S
O78 C86 1.420 . A
O79 C86 1.415 1_556 A
O80 C82 1.449 1_556 A
O81 C82 1.413 . A
H83 O93 0.820 . S
O84 C87 1.364 . A
O85 C87 1.424 . A
O85 H94 0.820 . S
C88 O90 1.409 . A
C88 O91 1.383 1_554 A
C89 O92 1.364 . A
C89 O93 1.467 . A
Zn95 O97 1.880 . S
Zn95 O100 1.927 . S
Zn95 O109 1.880 . S
Zn95 O111 1.920 . S
Zn96 O98 1.921 . S
Zn96 O99 1.829 . S
Zn96 O103 1.914 . S
Zn96 O110 1.885 . S
O97 C105 1.420 . A
O98 C105 1.415 1_556 A
O99 C101 1.449 1_556 A
O100 C101 1.413 . A
H102 O112 0.820 . S
O103 C106 1.364 . A
O104 C106 1.424 . A
O104 H113 0.820 . S
C107 O109 1.409 . A
C107 O110 1.383 1_554 A
C108 O111 1.364 . A
C108 O112 1.467 . A
Zn114 O116 1.880 . S
Zn114 O119 1.927 . S
Zn114 O128 1.880 . S
Zn114 O130 1.920 . S
Zn115 O117 1.921 . S
Zn115 O118 1.829 . S
Zn115 O122 1.914 . S
Zn115 O129 1.885 . S
O116 C124 1.420 . A
O117 C124 1.415 1_556 A
O118 C120 1.449 1_556 A
O119 C120 1.413 . A
H121 O131 0.820 . S
O122 C125 1.364 . A
O123 C125 1.424 . A
O123 H132 0.820 . S
C126 O128 1.409 . A
C126 O129 1.383 1_554 A
C127 O130 1.364 . A
C127 O131 1.467 . A
Zn133 O135 1.880 . S
Zn133 O138 1.927 . S
Zn133 O147 1.880 . S
Zn133 O149 1.920 . S
Zn134 O136 1.921 . S
Zn134 O137 1.829 . S
Zn134 O141 1.914 . S
Zn134 O148 1.885 . S
O135 C143 1.420 . A
O136 C143 1.415 1_556 A
O137 C139 1.449 1_556 A
O138 C139 1.413 . A
H140 O150 0.820 . S
O141 C144 1.364 . A
O142 C144 1.424 . A
O142 H151 0.820 . S
C145 O147 1.409 . A
C145 O148 1.383 1_554 A
C146 O149 1.364 . A
C146 O150 1.467 . A
Zn152 O154 1.880 . S
Zn152 O157 1.927 . S
Zn152 O166 1.880 . S
Zn152 O168 1.920 . S
Zn153 O155 1.921 . S
Zn153 O156 1.829 . S
Zn153 O160 1.914 . S
Zn153 O167 1.885 . S
O154 C162 1.420 1_556 A
O155 C162 1.415 . A
O156 C158 1.449 . A
O157 C158 1.413 1_556 A
H159 O169 0.820 . S
O160 C163 1.364 . A
O161 C163 1.424 . A
O161 H170 0.820 . S
C164 O166 1.409 1_554 A
C164 O167 1.383 . A
C165 O168 1.364 . A
C165 O169 1.467 . A
Zn171 O173 1.880 . S
Zn171 O176 1.927 . S
Zn171 O185 1.880 . S
Zn171 O187 1.920 . S
Zn172 O174 1.921 . S
Zn172 O175 1.829 . S
Zn172 O179 1.914 . S
Zn172 O186 1.885 . S
O173 C181 1.420 1_556 A
O174 C181 1.415 . A
O175 C177 1.449 . A
O176 C177 1.413 1_556 A
H178 O188 0.820 . S
O179 C182 1.364 . A
O180 C182 1.424 . A
O180 H189 0.820 . S
C183 O185 1.409 1_554 A
C183 O186 1.383 . A
C184 O187 1.364 . A
C184 O188 1.467 . A
Zn190 O192 1.880 . S
Zn190 O195 1.927 . S
Zn190 O204 1.880 . S
Zn190 O206 1.920 . S
Zn191 O193 1.921 . S
Zn191 O194 1.829 . S
Zn191 O198 1.914 . S
Zn191 O205 1.885 . S
O192 C200 1.420 1_556 A
O193 C200 1.415 . A
O194 C196 1.449 . A
O195 C196 1.413 1_556 A
H197 O207 0.820 . S
O198 C201 1.364 . A
O199 C201 1.424 . A
O199 H208 0.820 . S
C202 O204 1.409 1_554 A
C202 O205 1.383 . A
C203 O206 1.364 . A
C203 O207 1.467 . A
Zn209 O211 1.880 . S
Zn209 O214 1.927 . S
Zn209 O223 1.880 . S
Zn209 O225 1.920 . S
Zn210 O212 1.921 . S
Zn210 O213 1.829 . S
Zn210 O217 1.914 . S
Zn210 O224 1.885 . S
O211 C219 1.420 1_556 A
O212 C219 1.415 . A
O213 C215 1.449 . A
O214 C215 1.413 1_556 A
H216 O226 0.820 . S
O217 C220 1.364 . A
O218 C220 1.424 . A
O218 H227 0.820 . S
C221 O223 1.409 1_554 A
C221 O224 1.383 . A
C222 O225 1.364 . A
C222 O226 1.467 . A
C228 C229 1.487 . S
C228 C230 1.390 . A
C228 C243 1.382 1_556 A
C229 C234 1.403 . A
C229 C241 1.412 1_556 A
C230 C231 1.404 . A
C230 H236 0.928 . S
C231 C232 1.401 . A
C231 H237 0.930 . S
C232 C233 1.389 . A
C232 H238 0.931 . S
C233 C234 1.372 . A
C233 H239 0.929 . S
C234 H240 0.931 . S
H235 C242 0.930 . S
C241 C242 1.344 . A
C242 C243 1.403 . A
C244 C245 1.487 . S
C244 C246 1.390 . A
C244 C259 1.382 1_556 A
C245 C250 1.403 . A
C245 C257 1.412 1_556 A
C246 C247 1.404 . A
C246 H252 0.928 . S
C247 C248 1.401 . A
C247 H253 0.930 . S
C248 C249 1.389 . A
C248 H254 0.931 . S
C249 C250 1.372 . A
C249 H255 0.929 . S
C250 H256 0.931 . S
H251 C258 0.930 . S
C257 C258 1.344 . A
C258 C259 1.403 . A
C260 C261 1.487 . S
C260 C262 1.390 . A
C260 C275 1.382 1_556 A
C261 C266 1.403 . A
C261 C273 1.412 1_556 A
C262 C263 1.404 . A
C262 H268 0.928 . S
C263 C264 1.401 . A
C263 H269 0.930 . S
C264 C265 1.389 . A
C264 H270 0.931 . S
C265 C266 1.372 . A
C265 H271 0.929 . S
C266 H272 0.931 . S
H267 C274 0.930 . S
C273 C274 1.344 . A
C274 C275 1.403 . A
C276 C277 1.487 . S
C276 C278 1.390 . A
C276 C291 1.382 1_556 A
C277 C282 1.403 . A
C277 C289 1.412 1_556 A
C278 C279 1.404 . A
C278 H284 0.928 . S
C279 C280 1.401 . A
C279 H285 0.930 . S
C280 C281 1.389 . A
C280 H286 0.931 . S
C281 C282 1.372 . A
C281 H287 0.929 . S
C282 H288 0.931 . S
H283 C290 0.930 . S
C289 C290 1.344 . A
C290 C291 1.403 . A
C292 C293 1.487 . S
C292 C294 1.390 . A
C292 C307 1.382 . A
C293 C298 1.403 . A
C293 C305 1.412 . A
C294 C295 1.404 . A
C294 H300 0.928 . S
C295 C296 1.401 . A
C295 H301 0.930 . S
C296 C297 1.389 . A
C296 H302 0.931 . S
C297 C298 1.372 . A
C297 H303 0.929 . S
C298 H304 0.931 . S
H299 C306 0.930 1_556 S
C305 C306 1.344 . A
C306 C307 1.403 . A
C308 C309 1.487 . S
C308 C310 1.390 . A
C308 C323 1.382 1_556 A
C309 C314 1.403 . A
C309 C321 1.412 1_556 A
C310 C311 1.404 . A
C310 H316 0.928 . S
C311 C312 1.401 . A
C311 H317 0.930 . S
C312 C313 1.389 . A
C312 H318 0.931 . S
C313 C314 1.372 . A
C313 H319 0.929 . S
C314 H320 0.931 . S
H315 C322 0.930 . S
C321 C322 1.344 . A
C322 C323 1.403 . A
C324 C325 1.487 . S
C324 C326 1.390 . A
C324 C339 1.382 1_556 A
C325 C330 1.403 . A
C325 C337 1.412 1_556 A
C326 C327 1.404 . A
C326 H332 0.928 . S
C327 C328 1.401 . A
C327 H333 0.930 . S
C328 C329 1.389 . A
C328 H334 0.931 . S
C329 C330 1.372 . A
C329 H335 0.929 . S
C330 H336 0.931 . S
H331 C338 0.930 . S
C337 C338 1.344 . A
C338 C339 1.403 . A
C340 C341 1.487 . S
C340 C342 1.390 . A
C340 C355 1.382 1_556 A
C341 C346 1.403 . A
C341 C353 1.412 1_556 A
C342 C343 1.404 . A
C342 H348 0.928 . S
C343 C344 1.401 . A
C343 H349 0.930 . S
C344 C345 1.389 . A
C344 H350 0.931 . S
C345 C346 1.372 . A
C345 H351 0.929 . S
C346 H352 0.931 . S
H347 C354 0.930 . S
C353 C354 1.344 . A
C354 C355 1.403 . A
C356 C357 1.487 1_554 S
C356 C358 1.390 1_554 A
C356 C371 1.382 . A
C357 C362 1.403 . A
C357 C369 1.412 1_556 A
C358 C359 1.404 . A
C358 H364 0.928 1_556 S
C359 C360 1.401 . A
C359 H365 0.930 . S
C360 C361 1.389 . A
C360 H366 0.931 . S
C361 C362 1.372 . A
C361 H367 0.929 . S
C362 H368 0.931 . S
H363 C370 0.930 . S
C369 C370 1.344 . A
C370 C371 1.403 . A
C372 C373 1.487 . S
C372 C374 1.390 . A
C372 C387 1.382 1_556 A
C373 C378 1.403 . A
C373 C385 1.412 1_556 A
C374 C375 1.404 . A
C374 H380 0.928 . S
C375 C376 1.401 . A
C375 H381 0.930 . S
C376 C377 1.389 . A
C376 H382 0.931 . S
C377 C378 1.372 . A
C377 H383 0.929 . S
C378 H384 0.931 . S
H379 C386 0.930 . S
C385 C386 1.344 . A
C386 C387 1.403 . A
C388 C389 1.487 . S
C388 C390 1.390 . A
C388 C403 1.382 . A
C389 C394 1.403 . A
C389 C401 1.412 . A
C390 C391 1.404 . A
C390 H396 0.928 . S
C391 C392 1.401 . A
C391 H397 0.930 . S
C392 C393 1.389 . A
C392 H398 0.931 . S
C393 C394 1.372 . A
C393 H399 0.929 . S
C394 H400 0.931 . S
H395 C402 0.930 1_556 S
C401 C402 1.344 . A
C402 C403 1.403 . A
C404 C405 1.487 . S
C404 C406 1.390 . A
C404 C419 1.382 . A
C405 C410 1.403 . A
C405 C417 1.412 . A
C406 C407 1.404 . A
C406 H412 0.928 . S
C407 C408 1.401 . A
C407 H413 0.930 . S
C408 C409 1.389 . A
C408 H414 0.931 . S
C409 C410 1.372 . A
C409 H415 0.929 . S
C410 H416 0.931 . S
H411 C418 0.930 . S
C417 C418 1.344 . A
C418 C419 1.403 . A
C420 C421 1.487 . S
C420 C422 1.390 . A
C420 C435 1.382 . A
C421 C426 1.403 . A
C421 C433 1.412 . A
C422 C423 1.404 . A
C422 H428 0.928 . S
C423 C424 1.401 . A
C423 H429 0.930 . S
C424 C425 1.389 . A
C424 H430 0.931 . S
C425 C426 1.372 . A
C425 H431 0.929 . S
C426 H432 0.931 . S
H427 C434 0.930 . S
C433 C434 1.344 . A
C434 C435 1.403 . A
C436 C437 1.487 . S
C436 C438 1.390 . A
C436 C451 1.382 . A
C437 C442 1.403 . A
C437 C449 1.412 . A
C438 C439 1.404 . A
C438 H444 0.928 . S
C439 C440 1.401 . A
C439 H445 0.930 . S
C440 C441 1.389 . A
C440 H446 0.931 . S
C441 C442 1.372 . A
C441 H447 0.929 . S
C442 H448 0.931 . S
H443 C450 0.930 . S
C449 C450 1.344 . A
C450 C451 1.403 . A
C452 C453 1.487 . S
C452 C454 1.390 . A
C452 C467 1.382 . A
C453 C458 1.403 . A
C453 C465 1.412 . A
C454 C455 1.404 . A
C454 H460 0.928 . S
C455 C456 1.401 . A
C455 H461 0.930 . S
C456 C457 1.389 . A
C456 H462 0.931 . S
C457 C458 1.372 . A
C457 H463 0.929 . S
C458 H464 0.931 . S
H459 C466 0.930 . S
C465 C466 1.344 . A
C466 C467 1.403 . A
C468 C469 1.487 . S
C468 C470 1.390 . A
C468 C483 1.382 . A
C469 C474 1.403 . A
C469 C481 1.412 . A
C470 C471 1.404 . A
C470 H476 0.928 . S
C471 C472 1.401 . A
C471 H477 0.930 . S
C472 C473 1.389 . A
C472 H478 0.931 . S
C473 C474 1.372 . A
C473 H479 0.929 . S
C474 H480 0.931 . S
H475 C482 0.930 . S
C481 C482 1.344 . A
C482 C483 1.403 . A
C484 C485 1.487 . S
C484 C486 1.390 . A
C484 C499 1.382 . A
C485 C490 1.403 . A
C485 C497 1.412 . A
C486 C487 1.404 . A
C486 H492 0.928 . S
C487 C488 1.401 . A
C487 H493 0.930 . S
C488 C489 1.389 . A
C488 H494 0.931 . S
C489 C490 1.372 . A
C489 H495 0.929 . S
C490 H496 0.931 . S
H491 C498 0.930 . S
C497 C498 1.344 . A
C498 C499 1.403 . A
C500 C501 1.487 . S
C500 C502 1.390 . A
C500 C515 1.382 . A
C501 C506 1.403 . A
C501 C513 1.412 . A
C502 C503 1.404 . A
C502 H508 0.928 . S
C503 C504 1.401 . A
C503 H509 0.930 . S
C504 C505 1.389 . A
C504 H510 0.931 . S
C505 C506 1.372 . A
C505 H511 0.929 . S
C506 H512 0.931 . S
H507 C514 0.930 . S
C513 C514 1.344 . A
C514 C515 1.403 . A
C516 C517 1.487 . S
C516 C518 1.390 . A
C516 C531 1.382 . A
C517 C522 1.403 . A
C517 C529 1.412 . A
C518 C519 1.404 . A
C518 H524 0.928 . S
C519 C520 1.401 . A
C519 H525 0.930 . S
C520 C521 1.389 . A
C520 H526 0.931 . S
C521 C522 1.372 . A
C521 H527 0.929 . S
C522 H528 0.931 . S
H523 C530 0.930 . S
C529 C530 1.344 . A
C530 C531 1.403 . A
C532 C533 1.487 . S
C532 C534 1.390 . A
C532 C547 1.382 . A
C533 C538 1.403 . A
C533 C545 1.412 . A
C534 C535 1.404 . A
C534 H540 0.928 . S
C535 C536 1.401 . A
C535 H541 0.930 . S
C536 C537 1.389 . A
C536 H542 0.931 . S
C537 C538 1.372 . A
C537 H543 0.929 . S
C538 H544 0.931 . S
H539 C546 0.930 . S
C545 C546 1.344 . A
C546 C547 1.403 . A
C548 C549 1.487 . S
C548 C550 1.390 . A
C548 C563 1.382 . A
C549 C554 1.403 . A
C549 C561 1.412 . A
C550 C551 1.404 . A
C550 H556 0.928 . S
C551 C552 1.401 . A
C551 H557 0.930 . S
C552 C553 1.389 . A
C552 H558 0.931 1_565 S
C553 C554 1.372 . A
C553 H559 0.929 . S
C554 H560 0.931 . S
H555 C562 0.930 . S
C561 C562 1.344 . A
C562 C563 1.403 . A
C564 C565 1.487 . S
C564 C566 1.390 . A
C564 C579 1.382 . A
C565 C570 1.403 . A
C565 C577 1.412 . A
C566 C567 1.404 . A
C566 H572 0.928 . S
C567 C568 1.401 . A
C567 H573 0.930 . S
C568 C569 1.389 . A
C568 H574 0.931 . S
C569 C570 1.372 . A
C569 H575 0.929 . S
C570 H576 0.931 . S
H571 C578 0.930 . S
C577 C578 1.344 . A
C578 C579 1.403 . A
C580 C581 1.487 . S
C580 C582 1.390 . A
C580 C595 1.382 . A
C581 C586 1.403 . A
C581 C593 1.412 . A
C582 C583 1.404 . A
C582 H588 0.928 . S
C583 C584 1.401 . A
C583 H589 0.930 . S
C584 C585 1.389 . A
C584 H590 0.931 . S
C585 C586 1.372 . A
C585 H591 0.929 . S
C586 H592 0.931 . S
H587 C594 0.930 . S
C593 C594 1.344 . A
C594 C595 1.403 . A
C596 C597 1.487 . S
C596 C598 1.390 . A
C596 C611 1.382 . A
C597 C602 1.403 . A
C597 C609 1.412 . A
C598 C599 1.404 . A
C598 H604 0.928 . S
C599 C600 1.401 . A
C599 H605 0.930 . S
C600 C601 1.389 . A
C600 H606 0.931 . S
C601 C602 1.372 . A
C601 H607 0.929 . S
C602 H608 0.931 . S
H603 C610 0.930 . S
C609 C610 1.344 . A
C610 C611 1.403 . A
C612 C613 1.487 . S
C612 C614 1.390 1_554 A
C612 C627 1.382 . A
C613 C618 1.403 1_554 A
C613 C625 1.412 . A
C614 C615 1.404 . A
C614 H620 0.928 . S
C615 C616 1.401 . A
C615 H621 0.930 . S
C616 C617 1.389 . A
C616 H622 0.931 . S
C617 C618 1.372 . A
C617 H623 0.929 . S
C618 H624 0.931 . S
H619 C626 0.930 . S
C625 C626 1.344 . A
C626 C627 1.403 . A
C628 C629 1.487 1_655 S
C628 C630 1.390 . A
C628 C643 1.382 1_556 A
C629 C634 1.403 . A
C629 C641 1.412 1_556 A
C630 C631 1.404 . A
C630 H636 0.928 . S
C631 C632 1.401 1_655 A
C631 H637 0.930 . S
C632 C633 1.389 . A
C632 H638 0.931 . S
C633 C634 1.372 . A
C633 H639 0.929 . S
C634 H640 0.931 . S
H635 C642 0.926 . S
C641 C642 1.336 1_455 A
C642 C643 1.417 . A
C644 C645 1.487 1_655 S
C644 C646 1.390 . A
C644 C659 1.382 . A
C645 C650 1.403 . A
C645 C657 1.412 . A
C646 C647 1.404 . A
C646 H652 0.928 . S
C647 C648 1.401 1_655 A
C647 H653 0.930 . S
C648 C649 1.389 . A
C648 H654 0.931 . S
C649 C650 1.372 . A
C649 H655 0.929 . S
C650 H656 0.931 . S
H651 C658 0.935 1_556 S
C657 C658 1.328 1_455 A
C658 C659 1.414 . A
C660 C661 1.487 1_565 S
C660 C662 1.390 . A
C660 C675 1.382 1_556 A
C661 C666 1.403 . A
C661 C673 1.412 1_556 A
C662 C663 1.404 . A
C662 H668 0.928 . S
C663 C664 1.401 . A
C663 H669 0.930 . S
C664 C665 1.389 1_565 A
C664 H670 0.931 . S
C665 C666 1.372 . A
C665 H671 0.929 . S
C666 H672 0.931 . S
H667 C674 0.930 . S
C673 C674 1.344 . A
C674 C675 1.403 1_545 A
C676 C677 1.487 1_545 S
C676 C678 1.390 . A
C676 C691 1.382 . A
C677 C682 1.403 . A
C677 C689 1.412 . A
C678 C679 1.404 . A
C678 H684 0.928 . S
C679 C680 1.401 1_545 A
C679 H685 0.930 . S
C680 C681 1.389 . A
C680 H686 0.931 . S
C681 C682 1.372 . A
C681 H687 0.929 . S
C682 H688 0.931 . S
H683 C690 0.927 1_556 S
C689 C690 1.339 1_565 A
C690 C691 1.413 . A
C692 C693 1.487 . S
C692 C694 1.390 . A
C692 C707 1.382 . A
C693 C698 1.403 . A
C693 C705 1.412 . A
C694 C695 1.404 . A
C694 H700 0.928 . S
C695 C696 1.401 . A
C695 H701 0.930 . S
C696 C697 1.389 . A
C696 H702 0.931 . S
C697 C698 1.372 . A
C697 H703 0.929 . S
C698 H704 0.931 . S
H699 C706 0.930 1_556 S
C705 C706 1.344 . A
C706 C707 1.403 . A
C241 C10 1.527 . S
C243 C105 1.422 . S
C257 C29 1.507 . S
C259 C48 1.434 . S
C273 C162 1.506 . S
C275 C67 1.436 . S
C289 C86 1.457 . S
C291 C219 1.507 . S
C305 C200 1.458 . S
C307 C124 1.493 . S
C321 C181 1.523 . S
C323 C143 1.424 . S
C337 C120 1.372 . S
C339 C6 1.196 . S
C353 C82 1.376 . S
C355 C25 1.200 . S
C369 C44 1.333 . S
C371 C177 1.219 . S
C385 C196 1.234 . S
C387 C63 1.330 . S
C401 C158 1.376 . S
C403 C101 1.205 . S
C417 C139 1.275 . S
C419 C215 1.274 . S
C433 C11 1.537 . S
C435 C13 1.473 . S
C449 C32 1.512 . S
C451 C30 1.511 . S
C465 C49 1.551 . S
C467 C51 1.478 . S
C481 C70 1.529 . S
C483 C68 1.383 . S
C497 C89 1.527 . S
C499 C87 1.388 . S
C513 C106 1.425 . S
C515 C108 1.489 . S
C529 C125 1.553 . S
C531 C127 1.476 . S
C545 C144 1.430 . S
C547 C146 1.488 . S
C561 C165 1.524 . S
C563 C163 1.401 . S
C577 C182 1.552 . S
C579 C184 1.475 . S
C593 C203 1.511 . S
C595 C201 1.508 . S
C609 C222 1.537 . S
C611 C220 1.383 . S
C625 C12 1.378 . S
C627 C145 1.332 . S
C641 C126 1.305 . S
C643 C31 1.297 . S
C657 C202 1.308 . S
C659 C50 1.303 . S
C673 C221 1.379 . S
C675 C69 1.323 . S
C689 C164 1.305 . S
C691 C88 1.291 . S
C705 C183 1.328 . S
C707 C107 1.329 . S
