# Generated by pormake.
# Topology snl, (6)-cn, num edge types: 1
# Building blocks:
#     Node 0, Type 0, BuildingBlock: N162, # of connection points: 6
#     Node 1, Type 0, BuildingBlock: N162, # of connection points: 6
#     Node 2, Type 0, BuildingBlock: N162, # of connection points: 6
#     Node 3, Type 0, BuildingBlock: N162, # of connection points: 6
#     Node 4, Type 0, BuildingBlock: N162, # of connection points: 6
#     Node 5, Type 0, BuildingBlock: N162, # of connection points: 6
#     Node 6, Type 0, BuildingBlock: N162, # of connection points: 6
#     Node 7, Type 0, BuildingBlock: N162, # of connection points: 6
#     Node 8, Type 0, BuildingBlock: N162, # of connection points: 6
#     Node 9, Type 0, BuildingBlock: N162, # of connection points: 6
#     Node 10, Type 0, BuildingBlock: N162, # of connection points: 6
#     Node 11, Type 0, BuildingBlock: N162, # of connection points: 6
#     Node 12, Type 0, BuildingBlock: N162, # of connection points: 6
#     Node 13, Type 0, BuildingBlock: N162, # of connection points: 6
#     Node 14, Type 0, BuildingBlock: N162, # of connection points: 6
#     Node 15, Type 0, BuildingBlock: N162, # of connection points: 6
#     Edge 16, Type (0, 0), BuildingBlock: E15, # of connection points: 2
#     Edge 17, Type (0, 0), BuildingBlock: E15, # of connection points: 2
#     Edge 18, Type (0, 0), BuildingBlock: E15, # of connection points: 2
#     Edge 19, Type (0, 0), BuildingBlock: E15, # of connection points: 2
#     Edge 20, Type (0, 0), BuildingBlock: E15, # of connection points: 2
#     Edge 21, Type (0, 0), BuildingBlock: E15, # of connection points: 2
#     Edge 22, Type (0, 0), BuildingBlock: E15, # of connection points: 2
#     Edge 23, Type (0, 0), BuildingBlock: E15, # of connection points: 2
#     Edge 24, Type (0, 0), BuildingBlock: E15, # of connection points: 2
#     Edge 25, Type (0, 0), BuildingBlock: E15, # of connection points: 2
#     Edge 26, Type (0, 0), BuildingBlock: E15, # of connection points: 2
#     Edge 27, Type (0, 0), BuildingBlock: E15, # of connection points: 2
#     Edge 28, Type (0, 0), BuildingBlock: E15, # of connection points: 2
#     Edge 29, Type (0, 0), BuildingBlock: E15, # of connection points: 2
#     Edge 30, Type (0, 0), BuildingBlock: E15, # of connection points: 2
#     Edge 31, Type (0, 0), BuildingBlock: E15, # of connection points: 2
#     Edge 32, Type (0, 0), BuildingBlock: E15, # of connection points: 2
#     Edge 33, Type (0, 0), BuildingBlock: E15, # of connection points: 2
#     Edge 34, Type (0, 0), BuildingBlock: E15, # of connection points: 2
#     Edge 35, Type (0, 0), BuildingBlock: E15, # of connection points: 2
#     Edge 36, Type (0, 0), BuildingBlock: E15, # of connection points: 2
#     Edge 37, Type (0, 0), BuildingBlock: E15, # of connection points: 2
#     Edge 38, Type (0, 0), BuildingBlock: E15, # of connection points: 2
#     Edge 39, Type (0, 0), BuildingBlock: E15, # of connection points: 2
#     Edge 40, Type (0, 0), BuildingBlock: E15, # of connection points: 2
#     Edge 41, Type (0, 0), BuildingBlock: E15, # of connection points: 2
#     Edge 42, Type (0, 0), BuildingBlock: E15, # of connection points: 2
#     Edge 43, Type (0, 0), BuildingBlock: E15, # of connection points: 2
#     Edge 44, Type (0, 0), BuildingBlock: E15, # of connection points: 2
#     Edge 45, Type (0, 0), BuildingBlock: E15, # of connection points: 2
#     Edge 46, Type (0, 0), BuildingBlock: E15, # of connection points: 2
#     Edge 47, Type (0, 0), BuildingBlock: E15, # of connection points: 2
#     Edge 48, Type (0, 0), BuildingBlock: E15, # of connection points: 2
#     Edge 49, Type (0, 0), BuildingBlock: E15, # of connection points: 2
#     Edge 50, Type (0, 0), BuildingBlock: E15, # of connection points: 2
#     Edge 51, Type (0, 0), BuildingBlock: E15, # of connection points: 2
#     Edge 52, Type (0, 0), BuildingBlock: E15, # of connection points: 2
#     Edge 53, Type (0, 0), BuildingBlock: E15, # of connection points: 2
#     Edge 54, Type (0, 0), BuildingBlock: E15, # of connection points: 2
#     Edge 55, Type (0, 0), BuildingBlock: E15, # of connection points: 2
#     Edge 56, Type (0, 0), BuildingBlock: E15, # of connection points: 2
#     Edge 57, Type (0, 0), BuildingBlock: E15, # of connection points: 2
#     Edge 58, Type (0, 0), BuildingBlock: E15, # of connection points: 2
#     Edge 59, Type (0, 0), BuildingBlock: E15, # of connection points: 2
#     Edge 60, Type (0, 0), BuildingBlock: E15, # of connection points: 2
#     Edge 61, Type (0, 0), BuildingBlock: E15, # of connection points: 2
#     Edge 62, Type (0, 0), BuildingBlock: E15, # of connection points: 2
#     Edge 63, Type (0, 0), BuildingBlock: E15, # of connection points: 2
# Relax obj value: 0.059
# Max RMSD: 0.124
# Mean RMSD: 0.118
data_snl+N162+E15
_symmetry_space_group_name_H-M    P1
_symmetry_Int_Tables_number       1
_symmetry_cell_setting            triclinic
loop_
_symmetry_equiv_pos_as_xyz
'x, y, z'
_cell_length_a     58.560
_cell_length_b     58.561
_cell_length_c     14.455
_cell_angle_alpha  91.229
_cell_angle_beta   90.410
_cell_angle_gamma  89.993
loop_
_atom_site_label
_atom_site_type_symbol
_atom_site_fract_x
_atom_site_fract_y
_atom_site_fract_z
_atom_type_partial_charge
C0 C 0.62813 0.62314 0.05006 0.00000
C1 C 0.64927 0.62363 0.10626 0.00000
C2 C 0.64654 0.62326 0.20024 0.00000
C3 C 0.66570 0.62221 0.26578 0.00000
C4 C 0.68763 0.62030 0.24378 0.00000
Co5 Co 0.62620 0.62443 0.37404 0.00000
C6 C 0.69731 0.62112 0.40517 0.00000
C7 C 0.67501 0.62333 0.42755 0.00000
C8 C 0.70487 0.61914 0.31380 0.00000
N9 N 0.62570 0.59339 0.39840 0.00000
N10 N 0.62721 0.62802 0.50630 0.00000
N11 N 0.62470 0.65671 0.35579 0.00000
N12 N 0.59390 0.62630 0.38527 0.00000
N13 N 0.62529 0.62195 0.23934 0.00000
N14 N 0.65913 0.62330 0.35951 0.00000
H15 H 0.62832 0.57895 0.27112 0.00000
H16 H 0.63002 0.54029 0.31703 0.00000
H17 H 0.62191 0.56323 0.57922 0.00000
H18 H 0.61375 0.59400 0.66846 0.00000
H19 H 0.62341 0.66090 0.68573 0.00000
H20 H 0.62983 0.66144 0.53011 0.00000
H21 H 0.65779 0.66713 0.33509 0.00000
H22 H 0.65078 0.70306 0.29664 0.00000
H23 H 0.58349 0.69383 0.33795 0.00000
H24 H 0.55723 0.66910 0.38047 0.00000
H25 H 0.54400 0.60320 0.40675 0.00000
H26 H 0.58235 0.59679 0.39503 0.00000
H27 H 0.59214 0.62155 0.21335 0.00000
H28 H 0.59442 0.61881 0.05226 0.00000
H29 H 0.66364 0.62418 0.07937 0.00000
H30 H 0.69179 0.61971 0.18181 0.00000
H31 H 0.70807 0.62093 0.45271 0.00000
H32 H 0.67068 0.62485 0.48914 0.00000
C33 C 0.62739 0.57557 0.33350 0.00000
C34 C 0.62773 0.55193 0.36076 0.00000
C35 C 0.62465 0.54711 0.45028 0.00000
C36 C 0.62336 0.56608 0.51652 0.00000
C37 C 0.62427 0.58759 0.48778 0.00000
C38 C 0.62271 0.60831 0.54507 0.00000
C39 C 0.61703 0.60780 0.64094 0.00000
C40 C 0.61644 0.62891 0.69499 0.00000
C41 C 0.62228 0.64728 0.65183 0.00000
C42 C 0.62690 0.64757 0.55805 0.00000
C43 C 0.64279 0.67232 0.33415 0.00000
C44 C 0.63876 0.69364 0.31313 0.00000
C45 C 0.61605 0.70238 0.31527 0.00000
C46 C 0.59842 0.68843 0.33575 0.00000
C47 C 0.60353 0.66571 0.35328 0.00000
C48 C 0.58579 0.64907 0.38059 0.00000
C49 C 0.56238 0.65416 0.38648 0.00000
C50 C 0.54728 0.63683 0.40112 0.00000
C51 C 0.55417 0.61531 0.40157 0.00000
C52 C 0.57774 0.61197 0.39379 0.00000
C53 C 0.60638 0.62148 0.18531 0.00000
C54 C 0.60749 0.62078 0.08851 0.00000
C55 C 0.13031 0.87664 0.44443 0.00000
C56 C 0.15136 0.87627 0.38890 0.00000
C57 C 0.14848 0.87667 0.29483 0.00000
C58 C 0.16752 0.87784 0.22991 0.00000
C59 C 0.18948 0.87984 0.25261 0.00000
Co60 Co 0.12786 0.87549 0.12038 0.00000
C61 C 0.19891 0.87912 0.09152 0.00000
C62 C 0.17658 0.87683 0.06843 0.00000
C63 C 0.20660 0.88110 0.18316 0.00000
N64 N 0.12718 0.90654 0.09623 0.00000
N65 N 0.12867 0.87196 0.98813 0.00000
N66 N 0.12653 0.84319 0.13835 0.00000
N67 N 0.09555 0.87348 0.10812 0.00000
N68 N 0.12715 0.87790 0.25507 0.00000
N69 N 0.16081 0.87676 0.13596 0.00000
H70 H 0.12994 0.92093 0.22369 0.00000
H71 H 0.13140 0.95962 0.17812 0.00000
H72 H 0.12296 0.93676 0.91551 0.00000
H73 H 0.11480 0.90600 0.82579 0.00000
H74 H 0.12473 0.83914 0.80835 0.00000
H75 H 0.13141 0.83857 0.96416 0.00000
H76 H 0.15971 0.83292 0.16003 0.00000
H77 H 0.15292 0.79694 0.19800 0.00000
H78 H 0.08552 0.80588 0.15463 0.00000
H79 H 0.05908 0.83052 0.11145 0.00000
H80 H 0.04551 0.89637 0.08523 0.00000
H81 H 0.08385 0.90294 0.09820 0.00000
H82 H 0.09405 0.87815 0.28001 0.00000
H83 H 0.09657 0.88083 0.44119 0.00000
H84 H 0.16578 0.87577 0.41624 0.00000
H85 H 0.19375 0.88041 0.31472 0.00000
H86 H 0.20959 0.87938 0.04433 0.00000
H87 H 0.17216 0.87532 0.00670 0.00000
C88 C 0.12889 0.92434 0.16131 0.00000
C89 C 0.12908 0.94799 0.13423 0.00000
C90 C 0.12584 0.95283 0.04464 0.00000
C91 C 0.12453 0.93389 0.97824 0.00000
C92 C 0.12558 0.91237 0.00685 0.00000
C93 C 0.12402 0.89167 0.94936 0.00000
C94 C 0.11818 0.89220 0.85332 0.00000
C95 C 0.11760 0.87110 0.79910 0.00000
C96 C 0.12359 0.85274 0.84231 0.00000
C97 C 0.12836 0.85243 0.93623 0.00000
C98 C 0.14474 0.82765 0.16046 0.00000
C99 C 0.14084 0.80631 0.18120 0.00000
C100 C 0.11816 0.79747 0.17827 0.00000
C101 C 0.10043 0.81135 0.15734 0.00000
C102 C 0.10541 0.83410 0.14013 0.00000
C103 C 0.08756 0.85068 0.11237 0.00000
C104 C 0.06415 0.84548 0.10571 0.00000
C105 C 0.04895 0.86275 0.09071 0.00000
C106 C 0.05574 0.88430 0.09064 0.00000
C107 C 0.07932 0.88775 0.09919 0.00000
C108 C 0.10833 0.87827 0.30851 0.00000
C109 C 0.10960 0.87894 0.40535 0.00000
C110 C 0.87215 0.62039 0.79482 0.00000
C111 C 0.87251 0.59942 0.84965 0.00000
C112 C 0.87201 0.60244 0.94383 0.00000
C113 C 0.87081 0.58349 0.00818 0.00000
C114 C 0.86890 0.56149 0.98483 0.00000
Co115 Co 0.87295 0.62334 0.11893 0.00000
C116 C 0.86946 0.55231 0.14559 0.00000
C117 C 0.87168 0.57469 0.16933 0.00000
C118 C 0.86760 0.54447 0.05378 0.00000
N119 N 0.84187 0.62398 0.14435 0.00000
N120 N 0.87633 0.62273 0.25102 0.00000
N121 N 0.90526 0.62471 0.09970 0.00000
N122 N 0.87487 0.65567 0.13218 0.00000
N123 N 0.87068 0.62383 0.98435 0.00000
N124 N 0.87178 0.59036 0.10231 0.00000
H125 H 0.82762 0.62099 0.01737 0.00000
H126 H 0.78889 0.61951 0.06446 0.00000
H127 H 0.81145 0.62840 0.32645 0.00000
H128 H 0.84210 0.63677 0.41519 0.00000
H129 H 0.90895 0.62703 0.42962 0.00000
H130 H 0.90971 0.62011 0.27356 0.00000
H131 H 0.91564 0.59153 0.07651 0.00000
H132 H 0.95164 0.59835 0.03732 0.00000
H133 H 0.94248 0.66579 0.08327 0.00000
H134 H 0.91773 0.69224 0.12832 0.00000
H135 H 0.85183 0.70569 0.15764 0.00000
H136 H 0.84536 0.66731 0.14366 0.00000
H137 H 0.87037 0.65690 0.96051 0.00000
H138 H 0.86787 0.65412 0.79934 0.00000
H139 H 0.87307 0.58496 0.82181 0.00000
H140 H 0.86840 0.55713 0.92260 0.00000
H141 H 0.86918 0.54170 0.19245 0.00000
H142 H 0.87311 0.57920 0.23116 0.00000
C143 C 0.82415 0.62212 0.07993 0.00000
C144 C 0.80047 0.62192 0.10796 0.00000
C145 C 0.79553 0.62528 0.19785 0.00000
C146 C 0.81440 0.62674 0.26354 0.00000
C147 C 0.83595 0.62570 0.23403 0.00000
C148 C 0.85658 0.62740 0.29074 0.00000
C149 C 0.85593 0.63338 0.38700 0.00000
C150 C 0.87696 0.63409 0.44039 0.00000
C151 C 0.89539 0.62808 0.39624 0.00000
C152 C 0.89581 0.62317 0.30215 0.00000
C153 C 0.92087 0.60651 0.07637 0.00000
C154 C 0.94222 0.61043 0.05490 0.00000
C155 C 0.95100 0.63314 0.05821 0.00000
C156 C 0.93705 0.65087 0.08029 0.00000
C157 C 0.91430 0.64586 0.09825 0.00000
C158 C 0.89765 0.66372 0.12726 0.00000
C159 C 0.90278 0.68715 0.13449 0.00000
C160 C 0.88545 0.70233 0.15068 0.00000
C161 C 0.86392 0.69549 0.15140 0.00000
C162 C 0.86055 0.67189 0.14222 0.00000
C163 C 0.87032 0.64257 0.93154 0.00000
C164 C 0.86976 0.64116 0.83468 0.00000
C165 C 0.87117 0.12274 0.56481 0.00000
C166 C 0.85012 0.12319 0.62036 0.00000
C167 C 0.85301 0.12285 0.71444 0.00000
C168 C 0.83397 0.12176 0.77939 0.00000
C169 C 0.81200 0.11980 0.75673 0.00000
Co170 Co 0.87364 0.12410 0.88887 0.00000
C171 C 0.80259 0.12063 0.91783 0.00000
C172 C 0.82493 0.12290 0.94088 0.00000
C173 C 0.79488 0.11862 0.82623 0.00000
N174 N 0.87426 0.09306 0.91334 0.00000
N175 N 0.87284 0.12771 0.02109 0.00000
N176 N 0.87504 0.15638 0.87055 0.00000
N177 N 0.90596 0.12604 0.90108 0.00000
N178 N 0.87434 0.12159 0.75419 0.00000
N179 N 0.84069 0.12288 0.87333 0.00000
H180 H 0.87146 0.07859 0.78602 0.00000
H181 H 0.86992 0.03993 0.83201 0.00000
H182 H 0.87842 0.06295 0.09439 0.00000
H183 H 0.88666 0.09375 0.18377 0.00000
H184 H 0.87687 0.16063 0.20053 0.00000
H185 H 0.87018 0.16112 0.04471 0.00000
H186 H 0.84188 0.16671 0.84880 0.00000
H187 H 0.84875 0.20265 0.81044 0.00000
H188 H 0.91612 0.19359 0.85384 0.00000
H189 H 0.94251 0.16892 0.89726 0.00000
H190 H 0.95594 0.10306 0.92416 0.00000
H191 H 0.91759 0.09656 0.91129 0.00000
H192 H 0.90744 0.12126 0.72922 0.00000
H193 H 0.90490 0.11848 0.56806 0.00000
H194 H 0.83570 0.12370 0.59303 0.00000
H195 H 0.80773 0.11919 0.69463 0.00000
H196 H 0.79190 0.12043 0.96504 0.00000
H197 H 0.82935 0.12444 0.00260 0.00000
C198 C 0.87250 0.07522 0.84845 0.00000
C199 C 0.87226 0.05159 0.87578 0.00000
C200 C 0.87550 0.04680 0.96542 0.00000
C201 C 0.87686 0.06579 0.03163 0.00000
C202 C 0.87585 0.08729 0.00279 0.00000
C203 C 0.87746 0.10802 0.06006 0.00000
C204 C 0.88330 0.10754 0.15611 0.00000
C205 C 0.88393 0.12866 0.21011 0.00000
C206 C 0.87797 0.14701 0.16671 0.00000
C207 C 0.87320 0.14727 0.07278 0.00000
C208 C 0.85686 0.17194 0.84830 0.00000
C209 C 0.86081 0.19326 0.82733 0.00000
C210 C 0.88350 0.20205 0.83014 0.00000
C211 C 0.90120 0.18814 0.85120 0.00000
C212 C 0.89618 0.16542 0.86865 0.00000
C213 C 0.91400 0.14882 0.89657 0.00000
C214 C 0.93741 0.15398 0.90316 0.00000
C215 C 0.95258 0.13668 0.91832 0.00000
C216 C 0.94574 0.11514 0.91863 0.00000
C217 C 0.92216 0.11175 0.91014 0.00000
C218 C 0.89315 0.12115 0.70074 0.00000
C219 C 0.89188 0.12042 0.60390 0.00000
C220 C 0.12771 0.38094 0.19460 0.00000
C221 C 0.12736 0.40187 0.13954 0.00000
C222 C 0.12786 0.39878 0.04538 0.00000
C223 C 0.12906 0.41769 0.98082 0.00000
C224 C 0.13100 0.43970 0.00392 0.00000
Co225 Co 0.12688 0.37778 0.87050 0.00000
C226 C 0.13043 0.44878 0.84305 0.00000
C227 C 0.12819 0.42638 0.81956 0.00000
C228 C 0.13230 0.45667 0.93478 0.00000
N229 N 0.15796 0.37709 0.84505 0.00000
N230 N 0.12349 0.37829 0.73840 0.00000
N231 N 0.09457 0.37644 0.88979 0.00000
N232 N 0.12494 0.34543 0.85761 0.00000
N233 N 0.12917 0.37737 0.00510 0.00000
N234 N 0.12809 0.41076 0.88676 0.00000
H235 H 0.17222 0.38015 0.97199 0.00000
H236 H 0.21095 0.38157 0.92483 0.00000
H237 H 0.18836 0.37252 0.66296 0.00000
H238 H 0.15771 0.36411 0.57433 0.00000
H239 H 0.09086 0.37391 0.55988 0.00000
H240 H 0.09012 0.38093 0.71588 0.00000
H241 H 0.08422 0.40965 0.91262 0.00000
H242 H 0.04822 0.40289 0.95194 0.00000
H243 H 0.05732 0.33541 0.90671 0.00000
H244 H 0.08204 0.30891 0.86192 0.00000
H245 H 0.14793 0.29538 0.83267 0.00000
H246 H 0.15443 0.33376 0.84622 0.00000
H247 H 0.12944 0.34432 0.02930 0.00000
H248 H 0.13196 0.34720 0.19045 0.00000
H249 H 0.12681 0.41635 0.16722 0.00000
H250 H 0.13151 0.44410 0.06611 0.00000
H251 H 0.13072 0.45936 0.79608 0.00000
H252 H 0.12675 0.42183 0.75779 0.00000
C253 C 0.17569 0.37898 0.90943 0.00000
C254 C 0.19936 0.37914 0.88137 0.00000
C255 C 0.20430 0.37571 0.79151 0.00000
C256 C 0.18542 0.37422 0.72585 0.00000
C257 C 0.16388 0.37530 0.75538 0.00000
C258 C 0.14324 0.37358 0.69871 0.00000
C259 C 0.14387 0.36754 0.60251 0.00000
C260 C 0.12284 0.36681 0.54914 0.00000
C261 C 0.10442 0.37286 0.59325 0.00000
C262 C 0.10401 0.37784 0.68730 0.00000
C263 C 0.07898 0.39467 0.91294 0.00000
C264 C 0.05763 0.39078 0.93448 0.00000
C265 C 0.04883 0.36809 0.93143 0.00000
C266 C 0.06276 0.35033 0.90953 0.00000
C267 C 0.08552 0.35531 0.89148 0.00000
C268 C 0.10215 0.33741 0.86264 0.00000
C269 C 0.09700 0.31399 0.85568 0.00000
C270 C 0.11431 0.29878 0.83963 0.00000
C271 C 0.13585 0.30560 0.83881 0.00000
C272 C 0.13924 0.32920 0.84773 0.00000
C273 C 0.12951 0.35867 0.05811 0.00000
C274 C 0.13008 0.36014 0.15496 0.00000
C275 C 0.62612 0.88047 0.69464 0.00000
C276 C 0.62580 0.90146 0.63997 0.00000
C277 C 0.62630 0.89848 0.54576 0.00000
C278 C 0.62754 0.91746 0.48156 0.00000
C279 C 0.62951 0.93945 0.50507 0.00000
Co280 Co 0.62530 0.87767 0.37052 0.00000
C281 C 0.62897 0.94870 0.34438 0.00000
C282 C 0.62670 0.92634 0.32048 0.00000
C283 C 0.63085 0.95649 0.43625 0.00000
N284 N 0.65638 0.87696 0.34508 0.00000
N285 N 0.62192 0.87834 0.23844 0.00000
N286 N 0.59299 0.87636 0.38975 0.00000
N287 N 0.62331 0.84534 0.35704 0.00000
N288 N 0.62758 0.87711 0.50509 0.00000
N289 N 0.62656 0.91064 0.38738 0.00000
H290 H 0.67064 0.87986 0.47208 0.00000
H291 H 0.70937 0.88127 0.42499 0.00000
H292 H 0.68679 0.87255 0.16295 0.00000
H293 H 0.65612 0.86429 0.07416 0.00000
H294 H 0.58929 0.87421 0.05983 0.00000
H295 H 0.58855 0.88105 0.21594 0.00000
H296 H 0.58269 0.90957 0.41318 0.00000
H297 H 0.54668 0.90282 0.45234 0.00000
H298 H 0.55567 0.83537 0.40589 0.00000
H299 H 0.58035 0.80888 0.36064 0.00000
H300 H 0.64622 0.79527 0.33120 0.00000
H301 H 0.65278 0.83363 0.34545 0.00000
H302 H 0.62780 0.84403 0.52868 0.00000
H303 H 0.63031 0.84673 0.68987 0.00000
H304 H 0.62528 0.91592 0.66791 0.00000
H305 H 0.63002 0.94378 0.56733 0.00000
H306 H 0.62928 0.95933 0.29761 0.00000
H307 H 0.62525 0.92186 0.25863 0.00000
C308 C 0.67411 0.87875 0.40951 0.00000
C309 C 0.69778 0.87891 0.38148 0.00000
C310 C 0.70272 0.87557 0.29156 0.00000
C311 C 0.68385 0.87418 0.22587 0.00000
C312 C 0.66230 0.87527 0.25539 0.00000
C313 C 0.64166 0.87364 0.19868 0.00000
C314 C 0.64229 0.86771 0.10238 0.00000
C315 C 0.62126 0.86707 0.04899 0.00000
C316 C 0.60285 0.87310 0.09319 0.00000
C317 C 0.60245 0.87798 0.18732 0.00000
C318 C 0.57743 0.89459 0.41322 0.00000
C319 C 0.55607 0.89072 0.43467 0.00000
C320 C 0.54723 0.86803 0.43119 0.00000
C321 C 0.56114 0.85028 0.40898 0.00000
C322 C 0.58390 0.85524 0.39105 0.00000
C323 C 0.60051 0.83735 0.36189 0.00000
C324 C 0.59531 0.81394 0.35449 0.00000
C325 C 0.61261 0.79872 0.33819 0.00000
C326 C 0.63415 0.80551 0.33751 0.00000
C327 C 0.63759 0.82910 0.34687 0.00000
C328 C 0.62789 0.85834 0.55776 0.00000
C329 C 0.62845 0.85971 0.65462 0.00000
C330 C 0.37166 0.37705 0.94480 0.00000
C331 C 0.35053 0.37656 0.88860 0.00000
C332 C 0.35326 0.37681 0.79460 0.00000
C333 C 0.33411 0.37785 0.72903 0.00000
C334 C 0.31218 0.37987 0.75098 0.00000
Co335 Co 0.37360 0.37535 0.62081 0.00000
C336 C 0.30250 0.37888 0.58959 0.00000
C337 C 0.32480 0.37656 0.56727 0.00000
C338 C 0.29495 0.38100 0.68093 0.00000
N339 N 0.37421 0.40636 0.59582 0.00000
N340 N 0.37259 0.37161 0.48861 0.00000
N341 N 0.37499 0.34309 0.63972 0.00000
N342 N 0.40590 0.37335 0.60963 0.00000
N343 N 0.37452 0.37799 0.75548 0.00000
N344 N 0.34068 0.37662 0.63531 0.00000
H345 H 0.37164 0.42096 0.72282 0.00000
H346 H 0.37008 0.45957 0.67613 0.00000
H347 H 0.37812 0.43627 0.41438 0.00000
H348 H 0.38617 0.40537 0.32576 0.00000
H349 H 0.37627 0.33849 0.30984 0.00000
H350 H 0.36984 0.33817 0.46548 0.00000
H351 H 0.34186 0.33282 0.66063 0.00000
H352 H 0.34874 0.29692 0.69981 0.00000
H353 H 0.41606 0.30585 0.65833 0.00000
H354 H 0.44241 0.33043 0.61531 0.00000
H355 H 0.45588 0.39624 0.58770 0.00000
H356 H 0.41755 0.40280 0.59928 0.00000
H357 H 0.40766 0.37831 0.78147 0.00000
H358 H 0.40539 0.38126 0.94252 0.00000
H359 H 0.33615 0.37610 0.91550 0.00000
H360 H 0.30802 0.38054 0.81295 0.00000
H361 H 0.29174 0.37905 0.54204 0.00000
H362 H 0.32912 0.37495 0.50570 0.00000
C363 C 0.37259 0.42426 0.66037 0.00000
C364 C 0.37233 0.44786 0.63263 0.00000
C365 C 0.37543 0.45256 0.54300 0.00000
C366 C 0.37666 0.43350 0.47715 0.00000
C367 C 0.37567 0.41203 0.50632 0.00000
C368 C 0.37716 0.39124 0.44944 0.00000
C369 C 0.38284 0.39162 0.35356 0.00000
C370 C 0.38336 0.37044 0.29993 0.00000
C371 C 0.37745 0.35214 0.34346 0.00000
C372 C 0.37283 0.35199 0.43725 0.00000
C373 C 0.35683 0.32757 0.66168 0.00000
C374 C 0.36079 0.30627 0.68313 0.00000
C375 C 0.38347 0.29745 0.68117 0.00000
C376 C 0.40115 0.31131 0.66042 0.00000
C377 C 0.39612 0.33402 0.64242 0.00000
C378 C 0.41392 0.35056 0.61477 0.00000
C379 C 0.43732 0.34538 0.60900 0.00000
C380 C 0.45248 0.36264 0.59401 0.00000
C381 C 0.44567 0.38418 0.59312 0.00000
C382 C 0.42210 0.38761 0.60082 0.00000
C383 C 0.39342 0.37847 0.80951 0.00000
C384 C 0.39231 0.37929 0.90631 0.00000
C385 C 0.12724 0.61942 0.79989 0.00000
C386 C 0.12692 0.59845 0.85470 0.00000
C387 C 0.12759 0.60148 0.94890 0.00000
C388 C 0.12885 0.58252 0.01329 0.00000
C389 C 0.13068 0.56052 0.99000 0.00000
Co390 Co 0.12697 0.62237 0.12398 0.00000
C391 C 0.13037 0.55134 0.15074 0.00000
C392 C 0.12823 0.57372 0.17442 0.00000
C393 C 0.13206 0.54350 0.05899 0.00000
N394 N 0.15809 0.62294 0.15036 0.00000
N395 N 0.12381 0.62177 0.25597 0.00000
N396 N 0.09463 0.62381 0.10375 0.00000
N397 N 0.12514 0.65471 0.13716 0.00000
N398 N 0.12903 0.62286 0.98946 0.00000
N399 N 0.12806 0.58939 0.10739 0.00000
H400 H 0.17213 0.61993 0.02381 0.00000
H401 H 0.21094 0.61837 0.07209 0.00000
H402 H 0.18883 0.62730 0.33339 0.00000
H403 H 0.15834 0.63574 0.42120 0.00000
H404 H 0.09149 0.62613 0.43357 0.00000
H405 H 0.09046 0.61922 0.27747 0.00000
H406 H 0.08415 0.59065 0.08024 0.00000
H407 H 0.04810 0.59754 0.03994 0.00000
H408 H 0.05746 0.66497 0.08618 0.00000
H409 H 0.08234 0.69137 0.13199 0.00000
H410 H 0.14832 0.70468 0.16334 0.00000
H411 H 0.15469 0.66629 0.14956 0.00000
H412 H 0.12936 0.65593 0.96563 0.00000
H413 H 0.13159 0.65315 0.80453 0.00000
H414 H 0.12629 0.58399 0.82684 0.00000
H415 H 0.13107 0.55616 0.92778 0.00000
H416 H 0.13070 0.54072 0.19761 0.00000
H417 H 0.12691 0.57823 0.23620 0.00000
C418 C 0.17571 0.62105 0.08648 0.00000
C419 C 0.19943 0.62080 0.11524 0.00000
C420 C 0.20453 0.62415 0.20529 0.00000
C421 C 0.18577 0.62565 0.27040 0.00000
C422 C 0.16417 0.62466 0.24022 0.00000
C423 C 0.14363 0.62640 0.29630 0.00000
C424 C 0.14445 0.63237 0.39258 0.00000
C425 C 0.12351 0.63313 0.44532 0.00000
C426 C 0.10500 0.62716 0.40061 0.00000
C427 C 0.10442 0.62225 0.30649 0.00000
C428 C 0.07895 0.60564 0.07993 0.00000
C429 C 0.05757 0.60961 0.05780 0.00000
C430 C 0.04885 0.63233 0.06085 0.00000
C431 C 0.06286 0.65003 0.08336 0.00000
C432 C 0.08564 0.64497 0.10202 0.00000
C433 C 0.10237 0.66280 0.13155 0.00000
C434 C 0.09729 0.68624 0.13862 0.00000
C435 C 0.11468 0.70139 0.15535 0.00000
C436 C 0.13620 0.69450 0.15673 0.00000
C437 C 0.13951 0.67089 0.14765 0.00000
C438 C 0.12934 0.64160 0.93667 0.00000
C439 C 0.12973 0.64018 0.83982 0.00000
C440 C 0.87391 0.87831 0.80459 0.00000
C441 C 0.87432 0.89948 0.86178 0.00000
C442 C 0.87379 0.89681 0.95565 0.00000
C443 C 0.87264 0.91601 0.02213 0.00000
C444 C 0.87080 0.93794 0.00124 0.00000
Co445 Co 0.87463 0.87657 0.12843 0.00000
C446 C 0.87136 0.94772 0.16307 0.00000
C447 C 0.87350 0.92542 0.18431 0.00000
C448 C 0.86954 0.95522 0.07212 0.00000
N449 N 0.84355 0.87612 0.15369 0.00000
N450 N 0.87799 0.87766 0.26063 0.00000
N451 N 0.90695 0.87502 0.10915 0.00000
N452 N 0.87645 0.84427 0.13805 0.00000
N453 N 0.87239 0.87558 0.99376 0.00000
N454 N 0.87356 0.90950 0.11551 0.00000
H455 H 0.82934 0.87868 0.02696 0.00000
H456 H 0.79060 0.88046 0.07410 0.00000
H457 H 0.81308 0.87248 0.33522 0.00000
H458 H 0.84368 0.86434 0.42314 0.00000
H459 H 0.91056 0.87393 0.43889 0.00000
H460 H 0.91137 0.88026 0.28357 0.00000
H461 H 0.91743 0.90809 0.08972 0.00000
H462 H 0.95342 0.90102 0.04987 0.00000
H463 H 0.94405 0.83375 0.08822 0.00000
H464 H 0.91920 0.80755 0.13023 0.00000
H465 H 0.85326 0.79441 0.15782 0.00000
H466 H 0.84691 0.83276 0.14814 0.00000
H467 H 0.87199 0.84241 0.96620 0.00000
H468 H 0.86953 0.84459 0.80530 0.00000
H469 H 0.87494 0.91384 0.83557 0.00000
H470 H 0.87033 0.94207 0.93949 0.00000
H471 H 0.87110 0.95851 0.21113 0.00000
H472 H 0.87491 0.92113 0.24564 0.00000
C473 C 0.82585 0.87779 0.08940 0.00000
C474 C 0.80217 0.87817 0.11738 0.00000
C475 C 0.79719 0.87516 0.20689 0.00000
C476 C 0.81604 0.87389 0.27250 0.00000
C477 C 0.83760 0.87475 0.24317 0.00000
C478 C 0.85822 0.87320 0.29977 0.00000
C479 C 0.85753 0.86758 0.39537 0.00000
C480 C 0.87855 0.86700 0.44877 0.00000
C481 C 0.89700 0.87279 0.40534 0.00000
C482 C 0.89745 0.87736 0.31178 0.00000
C483 C 0.92261 0.89309 0.08791 0.00000
C484 C 0.94396 0.88902 0.06606 0.00000
C485 C 0.95266 0.86630 0.06686 0.00000
C486 C 0.93866 0.84869 0.08690 0.00000
C487 C 0.91592 0.85384 0.10535 0.00000
C488 C 0.89921 0.83614 0.13231 0.00000
C489 C 0.90427 0.81271 0.13693 0.00000
C490 C 0.88689 0.79764 0.15136 0.00000
C491 C 0.86538 0.80455 0.15277 0.00000
C492 C 0.86208 0.82814 0.14623 0.00000
C493 C 0.87198 0.85664 0.93884 0.00000
C494 C 0.87145 0.85769 0.84211 0.00000
C495 C 0.37141 0.62212 0.04481 0.00000
C496 C 0.35036 0.62257 0.10034 0.00000
C497 C 0.35324 0.62220 0.19442 0.00000
C498 C 0.33420 0.62111 0.25936 0.00000
C499 C 0.31223 0.61915 0.23668 0.00000
Co500 Co 0.37387 0.62341 0.36886 0.00000
C501 C 0.30281 0.61996 0.39777 0.00000
C502 C 0.32515 0.62221 0.42084 0.00000
C503 C 0.29511 0.61796 0.30615 0.00000
N504 N 0.37447 0.59237 0.39322 0.00000
N505 N 0.37307 0.62699 0.50109 0.00000
N506 N 0.37528 0.65569 0.35066 0.00000
N507 N 0.40619 0.62534 0.38109 0.00000
N508 N 0.37457 0.62093 0.23417 0.00000
N509 N 0.34092 0.62221 0.35329 0.00000
H510 H 0.37168 0.57792 0.26585 0.00000
H511 H 0.37013 0.53926 0.31171 0.00000
H512 H 0.37862 0.56221 0.57416 0.00000
H513 H 0.38687 0.59299 0.66366 0.00000
H514 H 0.37710 0.65988 0.68064 0.00000
H515 H 0.37042 0.66040 0.52483 0.00000
H516 H 0.34213 0.66604 0.32892 0.00000
H517 H 0.34900 0.70199 0.29070 0.00000
H518 H 0.41638 0.69290 0.33410 0.00000
H519 H 0.44276 0.66821 0.37745 0.00000
H520 H 0.45617 0.60234 0.40412 0.00000
H521 H 0.41781 0.59585 0.39121 0.00000
H522 H 0.40767 0.62059 0.20922 0.00000
H523 H 0.40514 0.61785 0.04805 0.00000
H524 H 0.33594 0.62309 0.07300 0.00000
H525 H 0.30797 0.61856 0.17457 0.00000
H526 H 0.29213 0.61975 0.44497 0.00000
H527 H 0.32957 0.62374 0.48256 0.00000
C528 C 0.37272 0.57454 0.32827 0.00000
C529 C 0.37247 0.55091 0.35551 0.00000
C530 C 0.37570 0.54609 0.44513 0.00000
C531 C 0.37706 0.56507 0.51141 0.00000
C532 C 0.37606 0.58657 0.48265 0.00000
C533 C 0.37768 0.60729 0.54000 0.00000
C534 C 0.38351 0.60679 0.63604 0.00000
C535 C 0.38415 0.62790 0.69011 0.00000
C536 C 0.37820 0.64627 0.64678 0.00000
C537 C 0.37343 0.64654 0.55285 0.00000
C538 C 0.35711 0.67127 0.32845 0.00000
C539 C 0.36106 0.69259 0.30756 0.00000
C540 C 0.38376 0.70137 0.31042 0.00000
C541 C 0.40145 0.68746 0.33144 0.00000
C542 C 0.39642 0.66473 0.34880 0.00000
C543 C 0.41424 0.64812 0.37667 0.00000
C544 C 0.43765 0.65327 0.38329 0.00000
C545 C 0.45281 0.63596 0.39840 0.00000
C546 C 0.44597 0.61443 0.39863 0.00000
C547 C 0.42238 0.61104 0.39011 0.00000
C548 C 0.39339 0.62049 0.18073 0.00000
C549 C 0.39212 0.61979 0.08390 0.00000
C550 C 0.87293 0.38112 0.19490 0.00000
C551 C 0.87317 0.40202 0.13966 0.00000
C552 C 0.87252 0.39887 0.04551 0.00000
C553 C 0.87119 0.41774 0.98073 0.00000
C554 C 0.86928 0.43977 0.00358 0.00000
Co555 Co 0.87322 0.37777 0.87084 0.00000
C556 C 0.86957 0.44875 0.84263 0.00000
C557 C 0.87179 0.42635 0.81941 0.00000
C558 C 0.86785 0.45670 0.93424 0.00000
N559 N 0.84210 0.37706 0.84444 0.00000
N560 N 0.87639 0.37822 0.73883 0.00000
N561 N 0.90556 0.37647 0.89113 0.00000
N562 N 0.87516 0.34543 0.85831 0.00000
N563 N 0.87116 0.37744 0.00538 0.00000
N564 N 0.87202 0.41077 0.88676 0.00000
H565 H 0.82805 0.38018 0.97093 0.00000
H566 H 0.78924 0.38155 0.92257 0.00000
H567 H 0.81139 0.37237 0.66145 0.00000
H568 H 0.84191 0.36393 0.57383 0.00000
H569 H 0.90873 0.37375 0.56133 0.00000
H570 H 0.90972 0.38086 0.71730 0.00000
H571 H 0.91592 0.40969 0.91398 0.00000
H572 H 0.95200 0.40298 0.95446 0.00000
H573 H 0.94287 0.33547 0.90957 0.00000
H574 H 0.91809 0.30893 0.86426 0.00000
H575 H 0.85216 0.29535 0.83312 0.00000
H576 H 0.84566 0.33373 0.84612 0.00000
H577 H 0.87094 0.34440 0.02988 0.00000
H578 H 0.86870 0.34737 0.19093 0.00000
H579 H 0.87375 0.41651 0.16723 0.00000
H580 H 0.86887 0.44420 0.06571 0.00000
H581 H 0.86920 0.45931 0.79555 0.00000
H582 H 0.87313 0.42176 0.75772 0.00000
C583 C 0.82448 0.37896 0.90827 0.00000
C584 C 0.80075 0.37910 0.87949 0.00000
C585 C 0.79567 0.37562 0.78949 0.00000
C586 C 0.81444 0.37410 0.72442 0.00000
C587 C 0.83603 0.37521 0.75460 0.00000
C588 C 0.85658 0.37348 0.69857 0.00000
C589 C 0.85578 0.36738 0.60240 0.00000
C590 C 0.87673 0.36663 0.54968 0.00000
C591 C 0.89522 0.37272 0.59430 0.00000
C592 C 0.89578 0.37775 0.68832 0.00000
C593 C 0.92118 0.39472 0.91459 0.00000
C594 C 0.94257 0.39086 0.93682 0.00000
C595 C 0.95138 0.36816 0.93424 0.00000
C596 C 0.93742 0.35039 0.91208 0.00000
C597 C 0.91463 0.35534 0.89329 0.00000
C598 C 0.89796 0.33742 0.86410 0.00000
C599 C 0.90312 0.31399 0.85751 0.00000
C600 C 0.88579 0.29877 0.84107 0.00000
C601 C 0.86425 0.30558 0.83953 0.00000
C602 C 0.86085 0.32918 0.84814 0.00000
C603 C 0.87091 0.35877 0.05855 0.00000
C604 C 0.87051 0.36030 0.15538 0.00000
C605 C 0.62688 0.11931 0.30962 0.00000
C606 C 0.62660 0.09834 0.36443 0.00000
C607 C 0.62726 0.10137 0.45864 0.00000
C608 C 0.62855 0.08241 0.52302 0.00000
C609 C 0.63041 0.06041 0.49973 0.00000
Co610 Co 0.62663 0.12226 0.63371 0.00000
C611 C 0.63011 0.05123 0.66048 0.00000
C612 C 0.62795 0.07361 0.68415 0.00000
C613 C 0.63180 0.04339 0.56873 0.00000
N614 N 0.65775 0.12287 0.66007 0.00000
N615 N 0.62347 0.12166 0.76570 0.00000
N616 N 0.59429 0.12366 0.61350 0.00000
N617 N 0.62476 0.15460 0.64689 0.00000
N618 N 0.62868 0.12275 0.49919 0.00000
N619 N 0.62775 0.08928 0.61712 0.00000
H620 H 0.67178 0.11987 0.53351 0.00000
H621 H 0.71060 0.11835 0.58177 0.00000
H622 H 0.68849 0.12726 0.84308 0.00000
H623 H 0.65800 0.13567 0.93091 0.00000
H624 H 0.59116 0.12598 0.94332 0.00000
H625 H 0.59013 0.11907 0.78723 0.00000
H626 H 0.58384 0.09049 0.59001 0.00000
H627 H 0.54778 0.09734 0.54972 0.00000
H628 H 0.55707 0.16478 0.59595 0.00000
H629 H 0.58192 0.19120 0.64174 0.00000
H630 H 0.64788 0.20460 0.67304 0.00000
H631 H 0.65430 0.16621 0.65927 0.00000
H632 H 0.62897 0.15582 0.47536 0.00000
H633 H 0.63119 0.15304 0.31426 0.00000
H634 H 0.62598 0.08388 0.33658 0.00000
H635 H 0.63080 0.05605 0.43752 0.00000
H636 H 0.63046 0.04062 0.70735 0.00000
H637 H 0.62663 0.07812 0.74594 0.00000
C638 C 0.67536 0.12100 0.59618 0.00000
C639 C 0.69909 0.12077 0.62492 0.00000
C640 C 0.70419 0.12414 0.71496 0.00000
C641 C 0.68543 0.12561 0.78009 0.00000
C642 C 0.66383 0.12459 0.74993 0.00000
C643 C 0.64329 0.12631 0.80602 0.00000
C644 C 0.64411 0.13229 0.90230 0.00000
C645 C 0.62317 0.13302 0.95506 0.00000
C646 C 0.60466 0.12703 0.91035 0.00000
C647 C 0.60408 0.12211 0.81624 0.00000
C648 C 0.57863 0.10548 0.58970 0.00000
C649 C 0.55724 0.10942 0.56758 0.00000
C650 C 0.54849 0.13213 0.57063 0.00000
C651 C 0.56249 0.14984 0.59313 0.00000
C652 C 0.58527 0.14481 0.61178 0.00000
C653 C 0.60198 0.16266 0.64129 0.00000
C654 C 0.59688 0.18610 0.64837 0.00000
C655 C 0.61424 0.20126 0.66508 0.00000
C656 C 0.63577 0.19440 0.66645 0.00000
C657 C 0.63911 0.17080 0.65736 0.00000
C658 C 0.62896 0.14149 0.44639 0.00000
C659 C 0.62935 0.14008 0.34955 0.00000
C660 C 0.37239 0.11986 0.31479 0.00000
C661 C 0.37276 0.09890 0.36969 0.00000
C662 C 0.37226 0.10194 0.46387 0.00000
C663 C 0.37106 0.08301 0.52828 0.00000
C664 C 0.36914 0.06100 0.50501 0.00000
Co665 Co 0.37321 0.12287 0.63889 0.00000
C666 C 0.36970 0.05186 0.66581 0.00000
C667 C 0.37193 0.07424 0.68947 0.00000
C668 C 0.36784 0.04400 0.57402 0.00000
N669 N 0.34214 0.12353 0.66434 0.00000
N670 N 0.37660 0.12230 0.77099 0.00000
N671 N 0.40552 0.12424 0.61964 0.00000
N672 N 0.37514 0.15521 0.65203 0.00000
N673 N 0.37093 0.12334 0.50431 0.00000
N674 N 0.37203 0.08989 0.62239 0.00000
H675 H 0.32788 0.12051 0.53737 0.00000
H676 H 0.28915 0.11906 0.58449 0.00000
H677 H 0.31172 0.12799 0.84644 0.00000
H678 H 0.34237 0.13638 0.93514 0.00000
H679 H 0.40923 0.12662 0.94955 0.00000
H680 H 0.40998 0.11967 0.79351 0.00000
H681 H 0.41589 0.09104 0.59656 0.00000
H682 H 0.45189 0.09784 0.55732 0.00000
H683 H 0.44275 0.16530 0.60304 0.00000
H684 H 0.41801 0.19177 0.64802 0.00000
H685 H 0.35212 0.20524 0.67733 0.00000
H686 H 0.34564 0.16686 0.66349 0.00000
H687 H 0.37064 0.15640 0.48036 0.00000
H688 H 0.36813 0.15359 0.31919 0.00000
H689 H 0.37331 0.08443 0.34190 0.00000
H690 H 0.36863 0.05663 0.44279 0.00000
H691 H 0.36942 0.04125 0.71270 0.00000
H692 H 0.37336 0.07876 0.75127 0.00000
C693 C 0.32441 0.12166 0.59993 0.00000
C694 C 0.30074 0.12147 0.62797 0.00000
C695 C 0.29579 0.12486 0.71786 0.00000
C696 C 0.31467 0.12633 0.78354 0.00000
C697 C 0.33621 0.12527 0.75401 0.00000
C698 C 0.35685 0.12698 0.81071 0.00000
C699 C 0.35621 0.13297 0.90695 0.00000
C700 C 0.37724 0.13370 0.96032 0.00000
C701 C 0.39566 0.12767 0.91618 0.00000
C702 C 0.39608 0.12273 0.82210 0.00000
C703 C 0.42112 0.10603 0.59636 0.00000
C704 C 0.44248 0.10994 0.57486 0.00000
C705 C 0.45126 0.13264 0.57809 0.00000
C706 C 0.43732 0.15037 0.60011 0.00000
C707 C 0.41456 0.14538 0.61811 0.00000
C708 C 0.39792 0.16325 0.64707 0.00000
C709 C 0.40306 0.18668 0.65422 0.00000
C710 C 0.38574 0.20186 0.67037 0.00000
C711 C 0.36421 0.19503 0.67112 0.00000
C712 C 0.36082 0.17143 0.66202 0.00000
C713 C 0.37058 0.14207 0.45144 0.00000
C714 C 0.37002 0.14063 0.35458 0.00000
C715 C 0.12847 0.12336 0.55973 0.00000
C716 C 0.14961 0.12382 0.61591 0.00000
C717 C 0.14689 0.12346 0.70990 0.00000
C718 C 0.16605 0.12237 0.77541 0.00000
C719 C 0.18798 0.12044 0.75339 0.00000
Co720 Co 0.12656 0.12465 0.88372 0.00000
C721 C 0.19767 0.12125 0.91478 0.00000
C722 C 0.17537 0.12349 0.93717 0.00000
C723 C 0.20522 0.11926 0.82339 0.00000
N724 N 0.12602 0.09361 0.90808 0.00000
N725 N 0.12758 0.12823 0.01598 0.00000
N726 N 0.12510 0.15693 0.86547 0.00000
N727 N 0.09426 0.12656 0.89498 0.00000
N728 N 0.12563 0.12217 0.74901 0.00000
N729 N 0.15949 0.12347 0.86915 0.00000
H730 H 0.12862 0.07916 0.78079 0.00000
H731 H 0.13028 0.04050 0.82670 0.00000
H732 H 0.12221 0.06345 0.08890 0.00000
H733 H 0.11409 0.09423 0.17815 0.00000
H734 H 0.12383 0.16112 0.19541 0.00000
H735 H 0.13025 0.16165 0.03979 0.00000
H736 H 0.15820 0.16730 0.84473 0.00000
H737 H 0.15123 0.20324 0.80629 0.00000
H738 H 0.08394 0.19410 0.84767 0.00000
H739 H 0.05765 0.16940 0.89022 0.00000
H740 H 0.04434 0.10352 0.91651 0.00000
H741 H 0.08268 0.09706 0.90475 0.00000
H742 H 0.09249 0.12181 0.72307 0.00000
H743 H 0.09475 0.11906 0.56197 0.00000
H744 H 0.16399 0.12435 0.58900 0.00000
H745 H 0.19214 0.11985 0.69142 0.00000
H746 H 0.20843 0.12105 0.96230 0.00000
H747 H 0.17105 0.12501 0.99876 0.00000
C748 C 0.12769 0.07579 0.84317 0.00000
C749 C 0.12800 0.05215 0.87044 0.00000
C750 C 0.12492 0.04733 0.95996 0.00000
C751 C 0.12366 0.06631 0.02619 0.00000
C752 C 0.12459 0.08781 0.99746 0.00000
C753 C 0.12306 0.10854 0.05475 0.00000
C754 C 0.11739 0.10803 0.15062 0.00000
C755 C 0.11682 0.12914 0.20467 0.00000
C756 C 0.12268 0.14751 0.16151 0.00000
C757 C 0.12730 0.14779 0.06773 0.00000
C758 C 0.14321 0.17252 0.84380 0.00000
C759 C 0.13921 0.19384 0.82279 0.00000
C760 C 0.11651 0.20261 0.82496 0.00000
C761 C 0.09886 0.18868 0.84545 0.00000
C762 C 0.10394 0.16595 0.86298 0.00000
C763 C 0.08619 0.14933 0.89031 0.00000
C764 C 0.06277 0.15446 0.89623 0.00000
C765 C 0.04766 0.13714 0.91088 0.00000
C766 C 0.05452 0.11562 0.91132 0.00000
C767 C 0.07809 0.11224 0.90352 0.00000
C768 C 0.10673 0.12172 0.69500 0.00000
C769 C 0.10783 0.12102 0.59820 0.00000
C770 C 0.62876 0.37687 0.94450 0.00000
C771 C 0.64981 0.37640 0.88894 0.00000
C772 C 0.64692 0.37670 0.79486 0.00000
C773 C 0.66596 0.37777 0.72989 0.00000
C774 C 0.68792 0.37976 0.75252 0.00000
Co775 Co 0.62628 0.37535 0.62045 0.00000
C776 C 0.69734 0.37885 0.59142 0.00000
C777 C 0.67500 0.37656 0.56840 0.00000
C778 C 0.70504 0.38091 0.68301 0.00000
N779 N 0.62565 0.40638 0.59573 0.00000
N780 N 0.62708 0.37168 0.48825 0.00000
N781 N 0.62491 0.34308 0.63902 0.00000
N782 N 0.59397 0.37338 0.60827 0.00000
N783 N 0.62559 0.37792 0.75511 0.00000
N784 N 0.65923 0.37659 0.63596 0.00000
H785 H 0.62844 0.42091 0.72294 0.00000
H786 H 0.62995 0.45954 0.67665 0.00000
H787 H 0.62146 0.43640 0.41444 0.00000
H788 H 0.61324 0.40555 0.32530 0.00000
H789 H 0.62307 0.33867 0.30906 0.00000
H790 H 0.62976 0.33826 0.46489 0.00000
H791 H 0.65807 0.33278 0.66083 0.00000
H792 H 0.65123 0.29686 0.69947 0.00000
H793 H 0.58384 0.30586 0.65603 0.00000
H794 H 0.55744 0.33049 0.61244 0.00000
H795 H 0.54397 0.39632 0.58503 0.00000
H796 H 0.58232 0.40285 0.59783 0.00000
H797 H 0.59249 0.37825 0.78009 0.00000
H798 H 0.59503 0.38110 0.94124 0.00000
H799 H 0.66423 0.37591 0.91627 0.00000
H800 H 0.69219 0.38039 0.81462 0.00000
H801 H 0.70802 0.37904 0.54420 0.00000
H802 H 0.67057 0.37499 0.50669 0.00000
C803 C 0.62739 0.42424 0.66049 0.00000
C804 C 0.62761 0.44786 0.63297 0.00000
C805 C 0.62437 0.45261 0.54329 0.00000
C806 C 0.62303 0.43359 0.47723 0.00000
C807 C 0.62405 0.41211 0.50623 0.00000
C808 C 0.62245 0.39135 0.44912 0.00000
C809 C 0.61661 0.39178 0.35307 0.00000
C810 C 0.61599 0.37063 0.29924 0.00000
C811 C 0.62196 0.35230 0.34278 0.00000
C812 C 0.62674 0.35210 0.43670 0.00000
C813 C 0.64309 0.32754 0.66138 0.00000
C814 C 0.63916 0.30623 0.68252 0.00000
C815 C 0.61647 0.29743 0.67979 0.00000
C816 C 0.59876 0.31131 0.65863 0.00000
C817 C 0.60377 0.33403 0.64099 0.00000
C818 C 0.58594 0.35060 0.61295 0.00000
C819 C 0.56253 0.34543 0.60642 0.00000
C820 C 0.54736 0.36271 0.59113 0.00000
C821 C 0.55418 0.38425 0.59065 0.00000
C822 C 0.57776 0.38766 0.59910 0.00000
C823 C 0.60678 0.37838 0.80857 0.00000
C824 C 0.60805 0.37915 0.90540 0.00000
C825 C 0.36981 0.87670 0.05453 0.00000
C826 C 0.34875 0.87639 0.10994 0.00000
C827 C 0.35161 0.87711 0.20408 0.00000
C828 C 0.33254 0.87839 0.26908 0.00000
C829 C 0.31058 0.88019 0.24653 0.00000
Co830 Co 0.37219 0.87662 0.37851 0.00000
C831 C 0.30112 0.87995 0.40752 0.00000
C832 C 0.32346 0.87786 0.43044 0.00000
C833 C 0.29343 0.88158 0.31608 0.00000
N834 N 0.37269 0.90776 0.40638 0.00000
N835 N 0.37137 0.87353 0.51036 0.00000
N836 N 0.37371 0.84426 0.35667 0.00000
N837 N 0.40451 0.87483 0.39066 0.00000
N838 N 0.37292 0.87860 0.24408 0.00000
N839 N 0.33924 0.87766 0.36294 0.00000
H840 H 0.36988 0.92172 0.28060 0.00000
H841 H 0.36819 0.96056 0.33081 0.00000
H842 H 0.37670 0.93861 0.59077 0.00000
H843 H 0.38502 0.90818 0.67685 0.00000
H844 H 0.37546 0.84131 0.68626 0.00000
H845 H 0.36882 0.84019 0.53033 0.00000
H846 H 0.34060 0.83373 0.33363 0.00000
H847 H 0.34760 0.79766 0.29138 0.00000
H848 H 0.41493 0.80712 0.33610 0.00000
H849 H 0.44122 0.83206 0.38234 0.00000
H850 H 0.45441 0.89808 0.41649 0.00000
H851 H 0.41604 0.90440 0.40415 0.00000
H852 H 0.40602 0.87895 0.21930 0.00000
H853 H 0.40352 0.88108 0.05840 0.00000
H854 H 0.33434 0.87572 0.08248 0.00000
H855 H 0.30632 0.88054 0.18446 0.00000
H856 H 0.29042 0.88031 0.45471 0.00000
H857 H 0.32787 0.87658 0.49202 0.00000
C858 C 0.37089 0.92534 0.34341 0.00000
C859 C 0.37056 0.94908 0.37332 0.00000
C860 C 0.37376 0.95424 0.46352 0.00000
C861 C 0.37516 0.93551 0.52768 0.00000
C862 C 0.37424 0.91389 0.49649 0.00000
C863 C 0.37590 0.89339 0.55152 0.00000
C864 C 0.38171 0.89427 0.64766 0.00000
C865 C 0.38240 0.87335 0.69937 0.00000
C866 C 0.37653 0.85481 0.65393 0.00000
C867 C 0.37178 0.85416 0.55993 0.00000
C868 C 0.35560 0.82855 0.33263 0.00000
C869 C 0.35962 0.80715 0.30935 0.00000
C870 C 0.38235 0.79845 0.31131 0.00000
C871 C 0.39999 0.81251 0.33398 0.00000
C872 C 0.39488 0.83529 0.35389 0.00000
C873 C 0.41264 0.85206 0.38371 0.00000
C874 C 0.43607 0.84701 0.38985 0.00000
C875 C 0.45116 0.86443 0.40697 0.00000
C876 C 0.44425 0.88594 0.40960 0.00000
C877 C 0.42066 0.88922 0.40137 0.00000
C878 C 0.39175 0.87890 0.19076 0.00000
C879 C 0.39050 0.87923 0.09397 0.00000
N880 N 0.59381 0.62753 0.93666 0.00000
N881 N 0.59140 0.62360 0.83136 0.00000
C882 C 0.61554 0.62313 0.78978 0.00000
C883 C 0.63286 0.62678 0.86936 0.00000
C884 C 0.61944 0.62949 0.96014 0.00000
H885 H 0.65194 0.62705 0.85420 0.00000
H886 H 0.57835 0.62845 0.98055 0.00000
H887 H 0.57623 0.62128 0.78568 0.00000
N888 N 0.15330 0.87319 0.58111 0.00000
N889 N 0.15043 0.87722 0.68602 0.00000
C890 C 0.12471 0.87696 0.70735 0.00000
C891 C 0.11168 0.87278 0.61564 0.00000
C892 C 0.12935 0.87045 0.53763 0.00000
H893 H 0.09223 0.87193 0.61518 0.00000
H894 H 0.17063 0.87272 0.55058 0.00000
H895 H 0.16304 0.88000 0.74285 0.00000
N896 N 0.90564 0.62881 0.65360 0.00000
N897 N 0.90133 0.63208 0.54949 0.00000
C898 C 0.87537 0.63107 0.53210 0.00000
C899 C 0.86364 0.62717 0.62544 0.00000
C900 C 0.88234 0.62578 0.70053 0.00000
H901 H 0.84424 0.62586 0.62881 0.00000
H902 H 0.92335 0.62897 0.68142 0.00000
H903 H 0.91312 0.63480 0.49098 0.00000
N904 N 0.90567 0.13082 0.45332 0.00000
N905 N 0.90855 0.12696 0.34833 0.00000
C906 C 0.88466 0.12337 0.30524 0.00000
C907 C 0.86702 0.12500 0.38359 0.00000
C908 C 0.88000 0.12961 0.47510 0.00000
H909 H 0.84806 0.12284 0.36721 0.00000
H910 H 0.92089 0.13379 0.49815 0.00000
H911 H 0.92390 0.12646 0.30371 0.00000
N912 N 0.15558 0.37109 0.40428 0.00000
N913 N 0.15130 0.37454 0.30027 0.00000
C914 C 0.12531 0.37578 0.28416 0.00000
C915 C 0.11353 0.37309 0.37820 0.00000
C916 C 0.13224 0.37019 0.45243 0.00000
H917 H 0.09410 0.37349 0.38256 0.00000
H918 H 0.17331 0.36973 0.43124 0.00000
H919 H 0.16313 0.37611 0.24109 0.00000
N920 N 0.59257 0.87286 0.83623 0.00000
N921 N 0.59687 0.86970 0.94040 0.00000
C922 C 0.62286 0.87013 0.95743 0.00000
C923 C 0.63462 0.87355 0.86380 0.00000
C924 C 0.61590 0.87524 0.78889 0.00000
H925 H 0.65404 0.87439 0.86013 0.00000
H926 H 0.57484 0.87308 0.80863 0.00000
H927 H 0.58506 0.86739 0.99990 0.00000
N928 N 0.35075 0.37612 0.18378 0.00000
N929 N 0.34831 0.37254 0.07832 0.00000
C930 C 0.37246 0.37057 0.03738 0.00000
C931 C 0.38982 0.37294 0.11753 0.00000
C932 C 0.37640 0.37637 0.20801 0.00000
H933 H 0.40890 0.37199 0.10290 0.00000
H934 H 0.33529 0.37798 0.22727 0.00000
H935 H 0.33311 0.37130 0.03217 0.00000
N936 N 0.09647 0.63757 0.66227 0.00000
N937 N 0.10121 0.64082 0.55873 0.00000
C938 C 0.12524 0.63141 0.53808 0.00000
C939 C 0.13535 0.62236 0.62885 0.00000
C940 C 0.11756 0.62616 0.70560 0.00000
H941 H 0.15318 0.61455 0.62961 0.00000
H942 H 0.07995 0.64323 0.69214 0.00000
H943 H 0.09080 0.64824 0.50242 0.00000
N944 N 0.84588 0.87039 0.59408 0.00000
N945 N 0.85028 0.87262 0.69905 0.00000
C946 C 0.87628 0.87356 0.71513 0.00000
C947 C 0.88796 0.87191 0.62011 0.00000
C948 C 0.86917 0.86995 0.54530 0.00000
H949 H 0.90739 0.87227 0.61558 0.00000
H950 H 0.82811 0.86943 0.56698 0.00000
H951 H 0.83851 0.87355 0.75888 0.00000
N952 N 0.35463 0.64479 0.90100 0.00000
N953 N 0.35749 0.64087 0.79603 0.00000
C954 C 0.37787 0.62463 0.78085 0.00000
C955 C 0.38760 0.61851 0.87641 0.00000
C956 C 0.37324 0.63096 0.95067 0.00000
H957 H 0.40291 0.60657 0.88163 0.00000
H958 H 0.34080 0.65606 0.92751 0.00000
H959 H 0.34790 0.64745 0.73571 0.00000
N960 N 0.90606 0.37539 0.34204 0.00000
N961 N 0.90134 0.37180 0.44539 0.00000
C962 C 0.87531 0.37019 0.45795 0.00000
C963 C 0.86393 0.37277 0.36237 0.00000
C964 C 0.88294 0.37599 0.29074 0.00000
H965 H 0.84454 0.37210 0.35538 0.00000
H966 H 0.92389 0.37702 0.31752 0.00000
H967 H 0.91291 0.37036 0.50614 0.00000
N968 N 0.65041 0.12040 0.20410 0.00000
N969 N 0.65517 0.12365 0.10058 0.00000
C970 C 0.63232 0.12897 0.05221 0.00000
C971 C 0.61345 0.12901 0.12584 0.00000
C972 C 0.62462 0.12371 0.21971 0.00000
H973 H 0.59499 0.13261 0.10514 0.00000
H974 H 0.66465 0.11639 0.25216 0.00000
H975 H 0.67116 0.12278 0.05988 0.00000
N976 N 0.40136 0.13398 0.07110 0.00000
N977 N 0.40566 0.13066 0.17517 0.00000
C978 C 0.38256 0.12559 0.22068 0.00000
C979 C 0.36399 0.12578 0.14474 0.00000
C980 C 0.37561 0.13097 0.05230 0.00000
H981 H 0.34542 0.12240 0.16313 0.00000
H982 H 0.41585 0.13783 0.02483 0.00000
H983 H 0.42149 0.13133 0.21784 0.00000
N984 N 0.14909 0.12876 0.31855 0.00000
N985 N 0.15148 0.13268 0.42385 0.00000
C986 C 0.12762 0.13039 0.46675 0.00000
C987 C 0.11048 0.12504 0.38797 0.00000
C988 C 0.12374 0.12403 0.29638 0.00000
H989 H 0.09162 0.12263 0.40415 0.00000
H990 H 0.16437 0.12965 0.27379 0.00000
H991 H 0.16650 0.13655 0.46879 0.00000
N992 N 0.59467 0.36569 0.05755 0.00000
N993 N 0.59178 0.36942 0.16260 0.00000
C994 C 0.61531 0.37557 0.20435 0.00000
C995 C 0.63275 0.37564 0.12512 0.00000
C996 C 0.61999 0.36954 0.03440 0.00000
H997 H 0.65143 0.37979 0.14045 0.00000
H998 H 0.57969 0.36107 0.01360 0.00000
H999 H 0.57663 0.36840 0.20802 0.00000
N1000 N 0.35501 0.89423 0.83010 0.00000
N1001 N 0.35225 0.88931 0.93365 0.00000
C1002 C 0.37154 0.87299 0.96224 0.00000
C1003 C 0.38623 0.86782 0.87637 0.00000
C1004 C 0.37601 0.88095 0.79471 0.00000
H1005 H 0.40162 0.85598 0.88175 0.00000
H1006 H 0.34278 0.90571 0.79502 0.00000
H1007 H 0.33956 0.89527 0.98550 0.00000
N1008 N 0.64038 0.73782 0.32282 0.00000
N1009 N 0.64068 0.76412 0.32561 0.00000
C1010 C 0.61576 0.77253 0.32664 0.00000
C1011 C 0.60007 0.75143 0.32449 0.00000
C1012 C 0.61528 0.72998 0.32213 0.00000
H1013 H 0.58073 0.75369 0.32484 0.00000
H1014 H 0.65668 0.72816 0.32170 0.00000
H1015 H 0.65491 0.77665 0.32685 0.00000
N1016 N 0.98761 0.86981 0.18781 0.00000
N1017 N 0.01390 0.87008 0.19135 0.00000
C1018 C 0.02272 0.86308 0.09471 0.00000
C1019 C 0.00188 0.85849 0.03145 0.00000
C1020 C 0.98018 0.86265 0.08898 0.00000
H1021 H 0.00445 0.85304 0.95606 0.00000
H1022 H 0.97769 0.87436 0.25068 0.00000
H1023 H 0.02619 0.87419 0.24811 0.00000
N1024 N 0.85806 0.76372 0.16015 0.00000
N1025 N 0.85754 0.73743 0.16040 0.00000
C1026 C 0.88239 0.72881 0.16047 0.00000
C1027 C 0.89826 0.74977 0.16027 0.00000
C1028 C 0.88322 0.77135 0.16008 0.00000
H1029 H 0.91757 0.74736 0.16029 0.00000
H1030 H 0.84183 0.77352 0.16007 0.00000
H1031 H 0.84321 0.72503 0.16052 0.00000
N1032 N 0.98598 0.14369 0.81139 0.00000
N1033 N 0.01226 0.14386 0.80851 0.00000
C1034 C 0.02125 0.13852 0.90606 0.00000
C1035 C 0.00010 0.13505 0.96922 0.00000
C1036 C 0.97873 0.13825 0.91071 0.00000
H1037 H 0.00323 0.13090 0.04520 0.00000
H1038 H 0.97593 0.14717 0.74782 0.00000
H1039 H 0.02444 0.14697 0.75168 0.00000
N1040 N 0.08332 0.23914 0.82998 0.00000
N1041 N 0.08409 0.26543 0.82979 0.00000
C1042 C 0.10932 0.27282 0.82991 0.00000
C1043 C 0.12415 0.25111 0.83017 0.00000
C1044 C 0.10809 0.23030 0.83022 0.00000
H1045 H 0.14357 0.25258 0.83030 0.00000
H1046 H 0.06664 0.23015 0.82993 0.00000
H1047 H 0.07037 0.27852 0.82960 0.00000
N1048 N 0.51081 0.84570 0.51424 0.00000
N1049 N 0.48453 0.84596 0.51075 0.00000
C1050 C 0.47707 0.86132 0.43085 0.00000
C1051 C 0.49874 0.87056 0.38496 0.00000
C1052 C 0.51960 0.86091 0.43650 0.00000
H1053 H 0.49722 0.88241 0.32368 0.00000
H1054 H 0.51985 0.83558 0.56723 0.00000
H1055 H 0.47148 0.83747 0.55346 0.00000
N1056 N 0.35801 0.23658 0.67950 0.00000
N1057 N 0.35874 0.26286 0.67794 0.00000
C1058 C 0.38397 0.27027 0.67697 0.00000
C1059 C 0.39882 0.24857 0.67793 0.00000
C1060 C 0.38278 0.22776 0.67950 0.00000
H1061 H 0.41823 0.25006 0.67743 0.00000
H1062 H 0.34134 0.22758 0.68039 0.00000
H1063 H 0.34502 0.27593 0.67746 0.00000
N1064 N 0.14281 0.73584 0.17300 0.00000
N1065 N 0.14251 0.76214 0.17574 0.00000
C1066 C 0.11743 0.76999 0.17191 0.00000
C1067 C 0.10223 0.74854 0.16679 0.00000
C1068 C 0.11791 0.72744 0.16747 0.00000
H1069 H 0.08286 0.75037 0.16338 0.00000
H1070 H 0.15931 0.72654 0.17508 0.00000
H1071 H 0.15645 0.77498 0.17970 0.00000
N1072 N 0.35874 0.76250 0.31210 0.00000
N1073 N 0.35925 0.73620 0.31232 0.00000
C1074 C 0.38441 0.72858 0.31536 0.00000
C1075 C 0.39944 0.75016 0.31702 0.00000
C1076 C 0.38358 0.77112 0.31500 0.00000
H1077 H 0.41883 0.74851 0.31935 0.00000
H1078 H 0.34214 0.77164 0.31006 0.00000
H1079 H 0.34541 0.72324 0.31075 0.00000
N1080 N 0.01271 0.35869 0.81098 0.00000
N1081 N 0.98642 0.35872 0.81220 0.00000
C1082 C 0.97876 0.36266 0.91297 0.00000
C1083 C 0.00010 0.36506 0.97404 0.00000
C1084 C 0.02130 0.36261 0.91101 0.00000
H1085 H 0.99864 0.36810 0.05186 0.00000
H1086 H 0.02189 0.35610 0.74465 0.00000
H1087 H 0.97348 0.35652 0.75623 0.00000
N1088 N 0.48767 0.13111 0.69486 0.00000
N1089 N 0.51395 0.13092 0.69195 0.00000
C1090 C 0.52127 0.13627 0.59261 0.00000
C1091 C 0.49951 0.13975 0.53414 0.00000
C1092 C 0.47875 0.13657 0.59734 0.00000
H1093 H 0.50092 0.14392 0.45772 0.00000
H1094 H 0.47872 0.12763 0.76052 0.00000
H1095 H 0.52708 0.12779 0.74598 0.00000
N1096 N 0.85807 0.26351 0.83343 0.00000
N1097 N 0.85880 0.23724 0.83498 0.00000
C1098 C 0.88402 0.22980 0.83487 0.00000
C1099 C 0.89888 0.25147 0.83324 0.00000
C1100 C 0.88285 0.27231 0.83236 0.00000
H1101 H 0.91829 0.24996 0.83290 0.00000
H1102 H 0.84140 0.27254 0.83326 0.00000
H1103 H 0.84506 0.22418 0.83607 0.00000
N1104 N 0.64121 0.26257 0.67505 0.00000
N1105 N 0.64197 0.23628 0.67527 0.00000
C1106 C 0.61721 0.22744 0.67493 0.00000
C1107 C 0.60114 0.24825 0.67451 0.00000
C1108 C 0.61597 0.26996 0.67458 0.00000
H1109 H 0.58185 0.24566 0.67421 0.00000
H1110 H 0.65734 0.27251 0.67524 0.00000
H1111 H 0.65642 0.22401 0.67560 0.00000
N1112 N 0.48666 0.65607 0.49816 0.00000
N1113 N 0.51295 0.65638 0.49904 0.00000
C1114 C 0.52129 0.63989 0.42206 0.00000
C1115 C 0.50015 0.62938 0.37360 0.00000
C1116 C 0.47875 0.63938 0.42064 0.00000
H1117 H 0.50235 0.61656 0.31387 0.00000
H1118 H 0.47704 0.66684 0.54855 0.00000
H1119 H 0.52551 0.66588 0.54298 0.00000
N1120 N 0.48710 0.33848 0.65025 0.00000
N1121 N 0.51339 0.33851 0.64905 0.00000
C1122 C 0.52122 0.35884 0.59133 0.00000
C1123 C 0.49977 0.37137 0.55686 0.00000
C1124 C 0.47868 0.35879 0.59327 0.00000
H1125 H 0.50158 0.38710 0.51237 0.00000
H1126 H 0.47782 0.32514 0.68833 0.00000
H1127 H 0.52624 0.32708 0.68078 0.00000
N1128 N 0.01281 0.61456 0.13472 0.00000
N1129 N 0.98652 0.61484 0.13390 0.00000
C1130 C 0.97862 0.63473 0.07344 0.00000
C1131 C 0.00010 0.64673 0.03690 0.00000
C1132 C 0.02117 0.63427 0.07477 0.00000
H1133 H 0.99818 0.66208 0.99023 0.00000
H1134 H 0.02214 0.60146 0.17453 0.00000
H1135 H 0.97371 0.60383 0.16741 0.00000
N1136 N 0.65632 0.48773 0.51868 0.00000
N1137 N 0.65645 0.51232 0.48296 0.00000
C1138 C 0.63149 0.51978 0.46841 0.00000
C1139 C 0.61594 0.49980 0.49514 0.00000
C1140 C 0.63129 0.48000 0.52620 0.00000
H1141 H 0.59659 0.50160 0.48965 0.00000
H1142 H 0.67269 0.47896 0.53386 0.00000
H1143 H 0.67059 0.52425 0.46771 0.00000
N1144 N 0.24827 0.87827 0.12068 0.00000
N1145 N 0.27278 0.87841 0.16002 0.00000
C1146 C 0.27129 0.87875 0.26636 0.00000
C1147 C 0.24586 0.87882 0.29274 0.00000
C1148 C 0.23164 0.87852 0.20271 0.00000
H1149 H 0.24074 0.87907 0.36870 0.00000
H1150 H 0.24539 0.87802 0.04469 0.00000
H1151 H 0.28971 0.87831 0.12594 0.00000
N1152 N 0.84148 0.51225 0.02011 0.00000
N1153 N 0.84157 0.48717 0.98571 0.00000
C1154 C 0.86651 0.48019 0.96734 0.00000
C1155 C 0.88183 0.50095 0.99038 0.00000
C1156 C 0.86636 0.52076 0.02299 0.00000
H1157 H 0.90112 0.49960 0.98172 0.00000
H1158 H 0.82509 0.52078 0.03760 0.00000
H1159 H 0.82759 0.47465 0.97349 0.00000
N1160 N 0.75390 0.12232 0.89196 0.00000
N1161 N 0.72917 0.12231 0.85503 0.00000
C1162 C 0.73002 0.12137 0.74857 0.00000
C1163 C 0.75528 0.12079 0.71969 0.00000
C1164 C 0.77004 0.12138 0.80831 0.00000
H1165 H 0.75994 0.12006 0.64325 0.00000
H1166 H 0.75724 0.12294 0.96765 0.00000
H1167 H 0.71246 0.12284 0.89076 0.00000
N1168 N 0.10094 0.51407 0.99459 0.00000
N1169 N 0.10106 0.48916 0.95816 0.00000
C1170 C 0.12571 0.48015 0.96452 0.00000
C1171 C 0.14084 0.49949 0.00489 0.00000
C1172 C 0.12553 0.52045 0.02347 0.00000
H1173 H 0.15990 0.49654 0.01571 0.00000
H1174 H 0.08474 0.52390 0.99615 0.00000
H1175 H 0.08725 0.47789 0.93066 0.00000
N1176 N 0.72838 0.87799 0.15407 0.00000
N1177 N 0.75334 0.87786 0.12130 0.00000
C1178 C 0.76891 0.87813 0.20760 0.00000
C1179 C 0.75358 0.87842 0.29371 0.00000
C1180 C 0.72852 0.87833 0.26063 0.00000
H1181 H 0.76160 0.87864 0.36582 0.00000
H1182 H 0.71422 0.87784 0.10259 0.00000
H1183 H 0.76095 0.87763 0.05118 0.00000
N1184 N 0.36509 0.52202 0.58059 0.00000
N1185 N 0.36500 0.49763 0.61838 0.00000
C1186 C 0.37155 0.48103 0.53887 0.00000
C1187 C 0.37570 0.49516 0.45194 0.00000
C1188 C 0.37171 0.52049 0.47773 0.00000
H1189 H 0.38079 0.48626 0.38428 0.00000
H1190 H 0.36080 0.53675 0.62683 0.00000
H1191 H 0.36124 0.49097 0.68797 0.00000
N1192 N 0.15705 0.01323 0.99076 0.00000
N1193 N 0.15739 0.98841 0.02375 0.00000
C1194 C 0.13250 0.98010 0.02976 0.00000
C1195 C 0.11679 0.99990 0.00010 0.00000
C1196 C 0.13196 0.02027 0.97637 0.00000
H1197 H 0.09747 0.99739 0.99990 0.00000
H1198 H 0.17333 0.02260 0.98162 0.00000
H1199 H 0.17162 0.97679 0.04203 0.00000
N1200 N 0.77035 0.37883 0.65039 0.00000
N1201 N 0.74548 0.37875 0.61507 0.00000
C1202 C 0.72968 0.37840 0.69972 0.00000
C1203 C 0.74478 0.37825 0.78735 0.00000
C1204 C 0.76992 0.37852 0.75686 0.00000
H1205 H 0.73657 0.37799 0.85859 0.00000
H1206 H 0.78465 0.37907 0.60039 0.00000
H1207 H 0.73806 0.37890 0.54422 0.00000
N1208 N 0.22652 0.12195 0.67016 0.00000
N1209 N 0.25128 0.12197 0.63502 0.00000
C1210 C 0.26735 0.12195 0.71982 0.00000
C1211 C 0.25252 0.12191 0.80736 0.00000
C1212 C 0.22729 0.12191 0.77667 0.00000
H1213 H 0.26095 0.12189 0.87868 0.00000
H1214 H 0.21207 0.12196 0.62004 0.00000
H1215 H 0.25849 0.12200 0.56420 0.00000
N1216 N 0.60002 0.01166 0.53227 0.00000
N1217 N 0.59967 0.98700 0.49314 0.00000
C1218 C 0.62446 0.97991 0.47224 0.00000
C1219 C 0.64012 0.00010 0.49843 0.00000
C1220 C 0.62502 0.01981 0.53554 0.00000
H1221 H 0.65937 0.99869 0.48858 0.00000
H1222 H 0.58380 0.02020 0.55216 0.00000
H1223 H 0.58549 0.97480 0.47925 0.00000
N1224 N 0.27398 0.37874 0.83523 0.00000
N1225 N 0.24936 0.37881 0.87202 0.00000
C1226 C 0.23296 0.37860 0.78828 0.00000
C1227 C 0.24743 0.37840 0.69974 0.00000
C1228 C 0.27278 0.37848 0.72876 0.00000
H1229 H 0.23871 0.37823 0.62896 0.00000
H1230 H 0.28863 0.37887 0.88440 0.00000
H1231 H 0.24245 0.37898 0.94333 0.00000
N1232 N 0.84365 0.01260 0.00374 0.00000
N1233 N 0.84351 0.98796 0.03890 0.00000
C1234 C 0.86836 0.97937 0.04135 0.00000
C1235 C 0.88385 0.99870 0.00771 0.00000
C1236 C 0.86858 0.01923 0.98446 0.00000
H1237 H 0.90311 0.99604 0.00392 0.00000
H1238 H 0.82736 0.02212 0.99659 0.00000
H1239 H 0.82942 0.97663 0.06060 0.00000
N1240 N 0.27306 0.62012 0.15377 0.00000
N1241 N 0.24803 0.62036 0.12036 0.00000
C1242 C 0.23263 0.62101 0.20627 0.00000
C1243 C 0.24813 0.62116 0.29277 0.00000
C1244 C 0.27312 0.62061 0.26033 0.00000
H1245 H 0.24026 0.62162 0.36468 0.00000
H1246 H 0.28711 0.61966 0.10264 0.00000
H1247 H 0.24028 0.62016 0.05004 0.00000
N1248 N 0.34363 0.00979 0.56961 0.00000
N1249 N 0.34375 0.98493 0.53270 0.00000
C1250 C 0.36706 0.98034 0.48729 0.00000
C1251 C 0.38134 0.00236 0.49613 0.00000
C1252 C 0.36686 0.02057 0.54701 0.00000
H1253 H 0.39936 0.00283 0.46695 0.00000
H1254 H 0.32831 0.01672 0.60523 0.00000
H1255 H 0.33070 0.97119 0.53406 0.00000
N1256 N 0.77125 0.62207 0.33865 0.00000
N1257 N 0.74681 0.62185 0.37724 0.00000
C1258 C 0.73003 0.62188 0.29473 0.00000
C1259 C 0.74410 0.62213 0.20516 0.00000
C1260 C 0.76958 0.62224 0.23231 0.00000
H1261 H 0.73506 0.62219 0.13505 0.00000
H1262 H 0.78612 0.62208 0.38673 0.00000
H1263 H 0.74022 0.62168 0.44903 0.00000
loop_
_geom_bond_atom_site_label_1
_geom_bond_atom_site_label_2
_geom_bond_distance
_geom_bond_site_symmetry_2
_ccdc_geom_bond_type
C0 C1 1.476 . A
C0 C54 1.342 . A
C1 C2 1.370 . A
C1 H29 0.931 . S
C2 C3 1.465 . S
C2 N13 1.374 . A
C3 C4 1.329 . A
C3 N14 1.411 . A
C4 C8 1.427 . A
C4 H30 0.930 . S
Co5 N9 1.859 . S
Co5 N10 1.919 . S
Co5 N11 1.916 . S
Co5 N12 1.902 . S
Co5 N13 1.950 . S
Co5 N14 1.942 . S
C6 C7 1.354 . A
C6 C8 1.398 . A
C6 H31 0.929 . S
C7 N14 1.349 . A
C7 H32 0.930 . S
N9 C33 1.392 . A
N9 C37 1.346 . A
N10 C38 1.321 . A
N10 C42 1.354 . A
N11 C43 1.440 . A
N11 C47 1.347 . A
N12 C48 1.418 . A
N12 C52 1.273 . A
N13 C53 1.350 . A
H15 C33 0.929 . S
H16 C34 0.930 . S
H17 C36 0.930 . S
H18 C39 0.929 . S
H19 C41 0.929 . S
H20 C42 0.931 . S
H21 C43 0.929 . S
H22 C44 0.930 . S
H23 C46 0.930 . S
H24 C49 0.930 . S
H25 C51 0.930 . S
H26 C52 0.929 . S
H27 C53 0.930 . S
H28 C54 0.930 . S
C33 C34 1.447 . A
C34 C35 1.344 . A
C35 C36 1.453 . A
C36 C37 1.336 . A
C37 C38 1.458 . S
C38 C39 1.428 . A
C39 C40 1.449 . A
C40 C41 1.302 . A
C41 C42 1.385 . A
C43 C44 1.312 . A
C44 C45 1.425 . A
C45 C46 1.355 . A
C46 C47 1.392 . A
C47 C48 1.486 . S
C48 C49 1.406 . A
C49 C50 1.367 . A
C50 C51 1.323 . A
C51 C52 1.399 . A
C53 C54 1.401 . A
C55 C56 1.476 . A
C55 C109 1.342 . A
C56 C57 1.370 . A
C56 H84 0.931 . S
C57 C58 1.465 . S
C57 N68 1.374 . A
C58 C59 1.329 . A
C58 N69 1.411 . A
C59 C63 1.427 . A
C59 H85 0.930 . S
Co60 N64 1.859 . S
Co60 N65 1.919 1_554 S
Co60 N66 1.916 . S
Co60 N67 1.902 . S
Co60 N68 1.950 . S
Co60 N69 1.942 . S
C61 C62 1.354 . A
C61 C63 1.398 . A
C61 H86 0.929 . S
C62 N69 1.349 . A
C62 H87 0.930 . S
N64 C88 1.392 . A
N64 C92 1.346 . A
N65 C93 1.321 . A
N65 C97 1.354 . A
N66 C98 1.440 . A
N66 C102 1.347 . A
N67 C103 1.418 . A
N67 C107 1.273 . A
N68 C108 1.350 . A
H70 C88 0.929 . S
H71 C89 0.930 . S
H72 C91 0.930 . S
H73 C94 0.929 . S
H74 C96 0.929 . S
H75 C97 0.931 . S
H76 C98 0.929 . S
H77 C99 0.930 . S
H78 C101 0.930 . S
H79 C104 0.930 . S
H80 C106 0.930 . S
H81 C107 0.929 . S
H82 C108 0.930 . S
H83 C109 0.930 . S
C88 C89 1.447 . A
C89 C90 1.344 . A
C90 C91 1.453 1_554 A
C91 C92 1.336 1_556 A
C92 C93 1.458 1_554 S
C93 C94 1.428 . A
C94 C95 1.449 . A
C95 C96 1.302 . A
C96 C97 1.385 . A
C98 C99 1.312 . A
C99 C100 1.425 . A
C100 C101 1.355 . A
C101 C102 1.392 . A
C102 C103 1.486 . S
C103 C104 1.406 . A
C104 C105 1.367 . A
C105 C106 1.323 . A
C106 C107 1.399 . A
C108 C109 1.401 . A
C110 C111 1.476 . A
C110 C164 1.342 . A
C111 C112 1.370 . A
C111 H139 0.931 . S
C112 C113 1.465 1_556 S
C112 N123 1.374 . A
C113 C114 1.329 1_554 A
C113 N124 1.411 . A
C114 C118 1.427 1_556 A
C114 H140 0.930 . S
Co115 N119 1.859 . S
Co115 N120 1.919 . S
Co115 N121 1.916 . S
Co115 N122 1.902 . S
Co115 N123 1.950 1_554 S
Co115 N124 1.942 . S
C116 C117 1.354 . A
C116 C118 1.398 . A
C116 H141 0.929 . S
C117 N124 1.349 . A
C117 H142 0.930 . S
N119 C143 1.392 . A
N119 C147 1.346 . A
N120 C148 1.321 . A
N120 C152 1.354 . A
N121 C153 1.440 . A
N121 C157 1.347 . A
N122 C158 1.418 . A
N122 C162 1.273 . A
N123 C163 1.350 . A
H125 C143 0.929 . S
H126 C144 0.930 . S
H127 C146 0.930 . S
H128 C149 0.929 . S
H129 C151 0.929 . S
H130 C152 0.931 . S
H131 C153 0.929 . S
H132 C154 0.930 . S
H133 C156 0.930 . S
H134 C159 0.930 . S
H135 C161 0.930 . S
H136 C162 0.929 . S
H137 C163 0.930 . S
H138 C164 0.930 . S
C143 C144 1.447 . A
C144 C145 1.344 . A
C145 C146 1.453 . A
C146 C147 1.336 . A
C147 C148 1.458 . S
C148 C149 1.428 . A
C149 C150 1.449 . A
C150 C151 1.302 . A
C151 C152 1.385 . A
C153 C154 1.312 . A
C154 C155 1.425 . A
C155 C156 1.355 . A
C156 C157 1.392 . A
C157 C158 1.486 . S
C158 C159 1.406 . A
C159 C160 1.367 . A
C160 C161 1.323 . A
C161 C162 1.399 . A
C163 C164 1.401 . A
C165 C166 1.476 . A
C165 C219 1.342 . A
C166 C167 1.370 . A
C166 H194 0.931 . S
C167 C168 1.465 . S
C167 N178 1.374 . A
C168 C169 1.329 . A
C168 N179 1.411 . A
C169 C173 1.427 . A
C169 H195 0.930 . S
Co170 N174 1.859 . S
Co170 N175 1.919 1_556 S
Co170 N176 1.916 . S
Co170 N177 1.902 . S
Co170 N178 1.950 . S
Co170 N179 1.942 . S
C171 C172 1.354 . A
C171 C173 1.398 . A
C171 H196 0.929 . S
C172 N179 1.349 . A
C172 H197 0.930 1_556 S
N174 C198 1.392 . A
N174 C202 1.346 1_556 A
N175 C203 1.321 . A
N175 C207 1.354 . A
N176 C208 1.440 . A
N176 C212 1.347 . A
N177 C213 1.418 . A
N177 C217 1.273 . A
N178 C218 1.350 . A
H180 C198 0.929 . S
H181 C199 0.930 . S
H182 C201 0.930 . S
H183 C204 0.929 . S
H184 C206 0.929 . S
H185 C207 0.931 . S
H186 C208 0.929 . S
H187 C209 0.930 . S
H188 C211 0.930 . S
H189 C214 0.930 . S
H190 C216 0.930 . S
H191 C217 0.929 . S
H192 C218 0.930 . S
H193 C219 0.930 . S
C198 C199 1.447 . A
C199 C200 1.344 . A
C200 C201 1.453 1_556 A
C201 C202 1.336 . A
C202 C203 1.458 . S
C203 C204 1.428 . A
C204 C205 1.449 . A
C205 C206 1.302 . A
C206 C207 1.385 . A
C208 C209 1.312 . A
C209 C210 1.425 . A
C210 C211 1.355 . A
C211 C212 1.392 . A
C212 C213 1.486 . S
C213 C214 1.406 . A
C214 C215 1.367 . A
C215 C216 1.323 . A
C216 C217 1.399 . A
C218 C219 1.401 . A
C220 C221 1.476 . A
C220 C274 1.342 . A
C221 C222 1.370 . A
C221 H249 0.931 . S
C222 C223 1.465 1_554 S
C222 N233 1.374 . A
C223 C224 1.329 1_556 A
C223 N234 1.411 . A
C224 C228 1.427 1_554 A
C224 H250 0.930 . S
Co225 N229 1.859 . S
Co225 N230 1.919 . S
Co225 N231 1.916 . S
Co225 N232 1.902 . S
Co225 N233 1.950 1_556 S
Co225 N234 1.942 . S
C226 C227 1.354 . A
C226 C228 1.398 . A
C226 H251 0.929 . S
C227 N234 1.349 . A
C227 H252 0.930 . S
N229 C253 1.392 . A
N229 C257 1.346 . A
N230 C258 1.321 . A
N230 C262 1.354 . A
N231 C263 1.440 . A
N231 C267 1.347 . A
N232 C268 1.418 . A
N232 C272 1.273 . A
N233 C273 1.350 . A
H235 C253 0.929 . S
H236 C254 0.930 . S
H237 C256 0.930 . S
H238 C259 0.929 . S
H239 C261 0.929 . S
H240 C262 0.931 . S
H241 C263 0.929 . S
H242 C264 0.930 . S
H243 C266 0.930 . S
H244 C269 0.930 . S
H245 C271 0.930 . S
H246 C272 0.929 . S
H247 C273 0.930 . S
H248 C274 0.930 . S
C253 C254 1.447 . A
C254 C255 1.344 . A
C255 C256 1.453 . A
C256 C257 1.336 . A
C257 C258 1.458 . S
C258 C259 1.428 . A
C259 C260 1.449 . A
C260 C261 1.302 . A
C261 C262 1.385 . A
C263 C264 1.312 . A
C264 C265 1.425 . A
C265 C266 1.355 . A
C266 C267 1.392 . A
C267 C268 1.486 . S
C268 C269 1.406 . A
C269 C270 1.367 . A
C270 C271 1.323 . A
C271 C272 1.399 . A
C273 C274 1.401 . A
C275 C276 1.476 . A
C275 C329 1.342 . A
C276 C277 1.370 . A
C276 H304 0.931 . S
C277 C278 1.465 . S
C277 N288 1.374 . A
C278 C279 1.329 . A
C278 N289 1.411 . A
C279 C283 1.427 . A
C279 H305 0.930 . S
Co280 N284 1.859 . S
Co280 N285 1.919 . S
Co280 N286 1.916 . S
Co280 N287 1.902 . S
Co280 N288 1.950 . S
Co280 N289 1.942 . S
C281 C282 1.354 . A
C281 C283 1.398 . A
C281 H306 0.929 . S
C282 N289 1.349 . A
C282 H307 0.930 . S
N284 C308 1.392 . A
N284 C312 1.346 . A
N285 C313 1.321 . A
N285 C317 1.354 . A
N286 C318 1.440 . A
N286 C322 1.347 . A
N287 C323 1.418 . A
N287 C327 1.273 . A
N288 C328 1.350 . A
H290 C308 0.929 . S
H291 C309 0.930 . S
H292 C311 0.930 . S
H293 C314 0.929 . S
H294 C316 0.929 . S
H295 C317 0.931 . S
H296 C318 0.929 . S
H297 C319 0.930 . S
H298 C321 0.930 . S
H299 C324 0.930 . S
H300 C326 0.930 . S
H301 C327 0.929 . S
H302 C328 0.930 . S
H303 C329 0.930 . S
C308 C309 1.447 . A
C309 C310 1.344 . A
C310 C311 1.453 . A
C311 C312 1.336 . A
C312 C313 1.458 . S
C313 C314 1.428 . A
C314 C315 1.449 . A
C315 C316 1.302 . A
C316 C317 1.385 . A
C318 C319 1.312 . A
C319 C320 1.425 . A
C320 C321 1.355 . A
C321 C322 1.392 . A
C322 C323 1.486 . S
C323 C324 1.406 . A
C324 C325 1.367 . A
C325 C326 1.323 . A
C326 C327 1.399 . A
C328 C329 1.401 . A
C330 C331 1.476 . A
C330 C384 1.342 . A
C331 C332 1.370 . A
C331 H359 0.931 . S
C332 C333 1.465 . S
C332 N343 1.374 . A
C333 C334 1.329 . A
C333 N344 1.411 . A
C334 C338 1.427 . A
C334 H360 0.930 . S
Co335 N339 1.859 . S
Co335 N340 1.919 . S
Co335 N341 1.916 . S
Co335 N342 1.902 . S
Co335 N343 1.950 . S
Co335 N344 1.942 . S
C336 C337 1.354 . A
C336 C338 1.398 . A
C336 H361 0.929 . S
C337 N344 1.349 . A
C337 H362 0.930 . S
N339 C363 1.392 . A
N339 C367 1.346 . A
N340 C368 1.321 . A
N340 C372 1.354 . A
N341 C373 1.440 . A
N341 C377 1.347 . A
N342 C378 1.418 . A
N342 C382 1.273 . A
N343 C383 1.350 . A
H345 C363 0.929 . S
H346 C364 0.930 . S
H347 C366 0.930 . S
H348 C369 0.929 . S
H349 C371 0.929 . S
H350 C372 0.931 . S
H351 C373 0.929 . S
H352 C374 0.930 . S
H353 C376 0.930 . S
H354 C379 0.930 . S
H355 C381 0.930 . S
H356 C382 0.929 . S
H357 C383 0.930 . S
H358 C384 0.930 . S
C363 C364 1.447 . A
C364 C365 1.344 . A
C365 C366 1.453 . A
C366 C367 1.336 . A
C367 C368 1.458 . S
C368 C369 1.428 . A
C369 C370 1.449 . A
C370 C371 1.302 . A
C371 C372 1.385 . A
C373 C374 1.312 . A
C374 C375 1.425 . A
C375 C376 1.355 . A
C376 C377 1.392 . A
C377 C378 1.486 . S
C378 C379 1.406 . A
C379 C380 1.367 . A
C380 C381 1.323 . A
C381 C382 1.399 . A
C383 C384 1.401 . A
C385 C386 1.476 . A
C385 C439 1.342 . A
C386 C387 1.370 . A
C386 H414 0.931 . S
C387 C388 1.465 1_556 S
C387 N398 1.374 . A
C388 C389 1.329 1_554 A
C388 N399 1.411 . A
C389 C393 1.427 1_556 A
C389 H415 0.930 . S
Co390 N394 1.859 . S
Co390 N395 1.919 . S
Co390 N396 1.916 . S
Co390 N397 1.902 . S
Co390 N398 1.950 1_554 S
Co390 N399 1.942 . S
C391 C392 1.354 . A
C391 C393 1.398 . A
C391 H416 0.929 . S
C392 N399 1.349 . A
C392 H417 0.930 . S
N394 C418 1.392 . A
N394 C422 1.346 . A
N395 C423 1.321 . A
N395 C427 1.354 . A
N396 C428 1.440 . A
N396 C432 1.347 . A
N397 C433 1.418 . A
N397 C437 1.273 . A
N398 C438 1.350 . A
H400 C418 0.929 . S
H401 C419 0.930 . S
H402 C421 0.930 . S
H403 C424 0.929 . S
H404 C426 0.929 . S
H405 C427 0.931 . S
H406 C428 0.929 . S
H407 C429 0.930 . S
H408 C431 0.930 . S
H409 C434 0.930 . S
H410 C436 0.930 . S
H411 C437 0.929 . S
H412 C438 0.930 . S
H413 C439 0.930 . S
C418 C419 1.447 . A
C419 C420 1.344 . A
C420 C421 1.453 . A
C421 C422 1.336 . A
C422 C423 1.458 . S
C423 C424 1.428 . A
C424 C425 1.449 . A
C425 C426 1.302 . A
C426 C427 1.385 . A
C428 C429 1.312 . A
C429 C430 1.425 . A
C430 C431 1.355 . A
C431 C432 1.392 . A
C432 C433 1.486 . S
C433 C434 1.406 . A
C434 C435 1.367 . A
C435 C436 1.323 . A
C436 C437 1.399 . A
C438 C439 1.401 . A
C440 C441 1.476 . A
C440 C494 1.342 . A
C441 C442 1.370 . A
C441 H469 0.931 . S
C442 C443 1.465 1_556 S
C442 N453 1.374 . A
C443 C444 1.329 . A
C443 N454 1.411 . A
C444 C448 1.427 . A
C444 H470 0.930 1_554 S
Co445 N449 1.859 . S
Co445 N450 1.919 . S
Co445 N451 1.916 . S
Co445 N452 1.902 . S
Co445 N453 1.950 1_554 S
Co445 N454 1.942 . S
C446 C447 1.354 . A
C446 C448 1.398 . A
C446 H471 0.929 . S
C447 N454 1.349 . A
C447 H472 0.930 . S
N449 C473 1.392 . A
N449 C477 1.346 . A
N450 C478 1.321 . A
N450 C482 1.354 . A
N451 C483 1.440 . A
N451 C487 1.347 . A
N452 C488 1.418 . A
N452 C492 1.273 . A
N453 C493 1.350 . A
H455 C473 0.929 . S
H456 C474 0.930 . S
H457 C476 0.930 . S
H458 C479 0.929 . S
H459 C481 0.929 . S
H460 C482 0.931 . S
H461 C483 0.929 . S
H462 C484 0.930 . S
H463 C486 0.930 . S
H464 C489 0.930 . S
H465 C491 0.930 . S
H466 C492 0.929 . S
H467 C493 0.930 . S
H468 C494 0.930 . S
C473 C474 1.447 . A
C474 C475 1.344 . A
C475 C476 1.453 . A
C476 C477 1.336 . A
C477 C478 1.458 . S
C478 C479 1.428 . A
C479 C480 1.449 . A
C480 C481 1.302 . A
C481 C482 1.385 . A
C483 C484 1.312 . A
C484 C485 1.425 . A
C485 C486 1.355 . A
C486 C487 1.392 . A
C487 C488 1.486 . S
C488 C489 1.406 . A
C489 C490 1.367 . A
C490 C491 1.323 . A
C491 C492 1.399 . A
C493 C494 1.401 . A
C495 C496 1.476 . A
C495 C549 1.342 . A
C496 C497 1.370 . A
C496 H524 0.931 . S
C497 C498 1.465 . S
C497 N508 1.374 . A
C498 C499 1.329 . A
C498 N509 1.411 . A
C499 C503 1.427 . A
C499 H525 0.930 . S
Co500 N504 1.859 . S
Co500 N505 1.919 . S
Co500 N506 1.916 . S
Co500 N507 1.902 . S
Co500 N508 1.950 . S
Co500 N509 1.942 . S
C501 C502 1.354 . A
C501 C503 1.398 . A
C501 H526 0.929 . S
C502 N509 1.349 . A
C502 H527 0.930 . S
N504 C528 1.392 . A
N504 C532 1.346 . A
N505 C533 1.321 . A
N505 C537 1.354 . A
N506 C538 1.440 . A
N506 C542 1.347 . A
N507 C543 1.418 . A
N507 C547 1.273 . A
N508 C548 1.350 . A
H510 C528 0.929 . S
H511 C529 0.930 . S
H512 C531 0.930 . S
H513 C534 0.929 . S
H514 C536 0.929 . S
H515 C537 0.931 . S
H516 C538 0.929 . S
H517 C539 0.930 . S
H518 C541 0.930 . S
H519 C544 0.930 . S
H520 C546 0.930 . S
H521 C547 0.929 . S
H522 C548 0.930 . S
H523 C549 0.930 . S
C528 C529 1.447 . A
C529 C530 1.344 . A
C530 C531 1.453 . A
C531 C532 1.336 . A
C532 C533 1.458 . S
C533 C534 1.428 . A
C534 C535 1.449 . A
C535 C536 1.302 . A
C536 C537 1.385 . A
C538 C539 1.312 . A
C539 C540 1.425 . A
C540 C541 1.355 . A
C541 C542 1.392 . A
C542 C543 1.486 . S
C543 C544 1.406 . A
C544 C545 1.367 . A
C545 C546 1.323 . A
C546 C547 1.399 . A
C548 C549 1.401 . A
C550 C551 1.476 . A
C550 C604 1.342 . A
C551 C552 1.370 . A
C551 H579 0.931 . S
C552 C553 1.465 1_554 S
C552 N563 1.374 . A
C553 C554 1.329 1_556 A
C553 N564 1.411 . A
C554 C558 1.427 1_554 A
C554 H580 0.930 . S
Co555 N559 1.859 . S
Co555 N560 1.919 . S
Co555 N561 1.916 . S
Co555 N562 1.902 . S
Co555 N563 1.950 1_556 S
Co555 N564 1.942 . S
C556 C557 1.354 . A
C556 C558 1.398 . A
C556 H581 0.929 . S
C557 N564 1.349 . A
C557 H582 0.930 . S
N559 C583 1.392 . A
N559 C587 1.346 . A
N560 C588 1.321 . A
N560 C592 1.354 . A
N561 C593 1.440 . A
N561 C597 1.347 . A
N562 C598 1.418 . A
N562 C602 1.273 . A
N563 C603 1.350 . A
H565 C583 0.929 . S
H566 C584 0.930 . S
H567 C586 0.930 . S
H568 C589 0.929 . S
H569 C591 0.929 . S
H570 C592 0.931 . S
H571 C593 0.929 . S
H572 C594 0.930 . S
H573 C596 0.930 . S
H574 C599 0.930 . S
H575 C601 0.930 . S
H576 C602 0.929 . S
H577 C603 0.930 . S
H578 C604 0.930 . S
C583 C584 1.447 . A
C584 C585 1.344 . A
C585 C586 1.453 . A
C586 C587 1.336 . A
C587 C588 1.458 . S
C588 C589 1.428 . A
C589 C590 1.449 . A
C590 C591 1.302 . A
C591 C592 1.385 . A
C593 C594 1.312 . A
C594 C595 1.425 . A
C595 C596 1.355 . A
C596 C597 1.392 . A
C597 C598 1.486 . S
C598 C599 1.406 . A
C599 C600 1.367 . A
C600 C601 1.323 . A
C601 C602 1.399 . A
C603 C604 1.401 . A
C605 C606 1.476 . A
C605 C659 1.342 . A
C606 C607 1.370 . A
C606 H634 0.931 . S
C607 C608 1.465 . S
C607 N618 1.374 . A
C608 C609 1.329 . A
C608 N619 1.411 . A
C609 C613 1.427 . A
C609 H635 0.930 . S
Co610 N614 1.859 . S
Co610 N615 1.919 . S
Co610 N616 1.916 . S
Co610 N617 1.902 . S
Co610 N618 1.950 . S
Co610 N619 1.942 . S
C611 C612 1.354 . A
C611 C613 1.398 . A
C611 H636 0.929 . S
C612 N619 1.349 . A
C612 H637 0.930 . S
N614 C638 1.392 . A
N614 C642 1.346 . A
N615 C643 1.321 . A
N615 C647 1.354 . A
N616 C648 1.440 . A
N616 C652 1.347 . A
N617 C653 1.418 . A
N617 C657 1.273 . A
N618 C658 1.350 . A
H620 C638 0.929 . S
H621 C639 0.930 . S
H622 C641 0.930 . S
H623 C644 0.929 . S
H624 C646 0.929 . S
H625 C647 0.931 . S
H626 C648 0.929 . S
H627 C649 0.930 . S
H628 C651 0.930 . S
H629 C654 0.930 . S
H630 C656 0.930 . S
H631 C657 0.929 . S
H632 C658 0.930 . S
H633 C659 0.930 . S
C638 C639 1.447 . A
C639 C640 1.344 . A
C640 C641 1.453 . A
C641 C642 1.336 . A
C642 C643 1.458 . S
C643 C644 1.428 . A
C644 C645 1.449 . A
C645 C646 1.302 . A
C646 C647 1.385 . A
C648 C649 1.312 . A
C649 C650 1.425 . A
C650 C651 1.355 . A
C651 C652 1.392 . A
C652 C653 1.486 . S
C653 C654 1.406 . A
C654 C655 1.367 . A
C655 C656 1.323 . A
C656 C657 1.399 . A
C658 C659 1.401 . A
C660 C661 1.476 . A
C660 C714 1.342 . A
C661 C662 1.370 . A
C661 H689 0.931 . S
C662 C663 1.465 . S
C662 N673 1.374 . A
C663 C664 1.329 . A
C663 N674 1.411 . A
C664 C668 1.427 . A
C664 H690 0.930 . S
Co665 N669 1.859 . S
Co665 N670 1.919 . S
Co665 N671 1.916 . S
Co665 N672 1.902 . S
Co665 N673 1.950 . S
Co665 N674 1.942 . S
C666 C667 1.354 . A
C666 C668 1.398 . A
C666 H691 0.929 . S
C667 N674 1.349 . A
C667 H692 0.930 . S
N669 C693 1.392 . A
N669 C697 1.346 . A
N670 C698 1.321 . A
N670 C702 1.354 . A
N671 C703 1.440 . A
N671 C707 1.347 . A
N672 C708 1.418 . A
N672 C712 1.273 . A
N673 C713 1.350 . A
H675 C693 0.929 . S
H676 C694 0.930 . S
H677 C696 0.930 . S
H678 C699 0.929 . S
H679 C701 0.929 . S
H680 C702 0.931 . S
H681 C703 0.929 . S
H682 C704 0.930 . S
H683 C706 0.930 . S
H684 C709 0.930 . S
H685 C711 0.930 . S
H686 C712 0.929 . S
H687 C713 0.930 . S
H688 C714 0.930 . S
C693 C694 1.447 . A
C694 C695 1.344 . A
C695 C696 1.453 . A
C696 C697 1.336 . A
C697 C698 1.458 . S
C698 C699 1.428 . A
C699 C700 1.449 . A
C700 C701 1.302 . A
C701 C702 1.385 . A
C703 C704 1.312 . A
C704 C705 1.425 . A
C705 C706 1.355 . A
C706 C707 1.392 . A
C707 C708 1.486 . S
C708 C709 1.406 . A
C709 C710 1.367 . A
C710 C711 1.323 . A
C711 C712 1.399 . A
C713 C714 1.401 . A
C715 C716 1.476 . A
C715 C769 1.342 . A
C716 C717 1.370 . A
C716 H744 0.931 . S
C717 C718 1.465 . S
C717 N728 1.374 . A
C718 C719 1.329 . A
C718 N729 1.411 . A
C719 C723 1.427 . A
C719 H745 0.930 . S
Co720 N724 1.859 . S
Co720 N725 1.919 1_556 S
Co720 N726 1.916 . S
Co720 N727 1.902 . S
Co720 N728 1.950 . S
Co720 N729 1.942 . S
C721 C722 1.354 . A
C721 C723 1.398 . A
C721 H746 0.929 . S
C722 N729 1.349 . A
C722 H747 0.930 . S
N724 C748 1.392 . A
N724 C752 1.346 . A
N725 C753 1.321 . A
N725 C757 1.354 . A
N726 C758 1.440 . A
N726 C762 1.347 . A
N727 C763 1.418 . A
N727 C767 1.273 . A
N728 C768 1.350 . A
H730 C748 0.929 . S
H731 C749 0.930 . S
H732 C751 0.930 . S
H733 C754 0.929 . S
H734 C756 0.929 . S
H735 C757 0.931 . S
H736 C758 0.929 . S
H737 C759 0.930 . S
H738 C761 0.930 . S
H739 C764 0.930 . S
H740 C766 0.930 . S
H741 C767 0.929 . S
H742 C768 0.930 . S
H743 C769 0.930 . S
C748 C749 1.447 . A
C749 C750 1.344 . A
C750 C751 1.453 1_556 A
C751 C752 1.336 1_554 A
C752 C753 1.458 1_556 S
C753 C754 1.428 . A
C754 C755 1.449 . A
C755 C756 1.302 . A
C756 C757 1.385 . A
C758 C759 1.312 . A
C759 C760 1.425 . A
C760 C761 1.355 . A
C761 C762 1.392 . A
C762 C763 1.486 . S
C763 C764 1.406 . A
C764 C765 1.367 . A
C765 C766 1.323 . A
C766 C767 1.399 . A
C768 C769 1.401 . A
C770 C771 1.476 . A
C770 C824 1.342 . A
C771 C772 1.370 . A
C771 H799 0.931 . S
C772 C773 1.465 . S
C772 N783 1.374 . A
C773 C774 1.329 . A
C773 N784 1.411 . A
C774 C778 1.427 . A
C774 H800 0.930 . S
Co775 N779 1.859 . S
Co775 N780 1.919 . S
Co775 N781 1.916 . S
Co775 N782 1.902 . S
Co775 N783 1.950 . S
Co775 N784 1.942 . S
C776 C777 1.354 . A
C776 C778 1.398 . A
C776 H801 0.929 . S
C777 N784 1.349 . A
C777 H802 0.930 . S
N779 C803 1.392 . A
N779 C807 1.346 . A
N780 C808 1.321 . A
N780 C812 1.354 . A
N781 C813 1.440 . A
N781 C817 1.347 . A
N782 C818 1.418 . A
N782 C822 1.273 . A
N783 C823 1.350 . A
H785 C803 0.929 . S
H786 C804 0.930 . S
H787 C806 0.930 . S
H788 C809 0.929 . S
H789 C811 0.929 . S
H790 C812 0.931 . S
H791 C813 0.929 . S
H792 C814 0.930 . S
H793 C816 0.930 . S
H794 C819 0.930 . S
H795 C821 0.930 . S
H796 C822 0.929 . S
H797 C823 0.930 . S
H798 C824 0.930 . S
C803 C804 1.447 . A
C804 C805 1.344 . A
C805 C806 1.453 . A
C806 C807 1.336 . A
C807 C808 1.458 . S
C808 C809 1.428 . A
C809 C810 1.449 . A
C810 C811 1.302 . A
C811 C812 1.385 . A
C813 C814 1.312 . A
C814 C815 1.425 . A
C815 C816 1.355 . A
C816 C817 1.392 . A
C817 C818 1.486 . S
C818 C819 1.406 . A
C819 C820 1.367 . A
C820 C821 1.323 . A
C821 C822 1.399 . A
C823 C824 1.401 . A
C825 C826 1.476 . A
C825 C879 1.342 . A
C826 C827 1.370 . A
C826 H854 0.931 . S
C827 C828 1.465 . S
C827 N838 1.374 . A
C828 C829 1.329 . A
C828 N839 1.411 . A
C829 C833 1.427 . A
C829 H855 0.930 . S
Co830 N834 1.859 . S
Co830 N835 1.919 . S
Co830 N836 1.916 . S
Co830 N837 1.902 . S
Co830 N838 1.950 . S
Co830 N839 1.942 . S
C831 C832 1.354 . A
C831 C833 1.398 . A
C831 H856 0.929 . S
C832 N839 1.349 . A
C832 H857 0.930 . S
N834 C858 1.392 . A
N834 C862 1.346 . A
N835 C863 1.321 . A
N835 C867 1.354 . A
N836 C868 1.440 . A
N836 C872 1.347 . A
N837 C873 1.418 . A
N837 C877 1.273 . A
N838 C878 1.350 . A
H840 C858 0.929 . S
H841 C859 0.930 . S
H842 C861 0.930 . S
H843 C864 0.929 . S
H844 C866 0.929 . S
H845 C867 0.931 . S
H846 C868 0.929 . S
H847 C869 0.930 . S
H848 C871 0.930 . S
H849 C874 0.930 . S
H850 C876 0.930 . S
H851 C877 0.929 . S
H852 C878 0.930 . S
H853 C879 0.930 . S
C858 C859 1.447 . A
C859 C860 1.344 . A
C860 C861 1.453 . A
C861 C862 1.336 . A
C862 C863 1.458 . S
C863 C864 1.428 . A
C864 C865 1.449 . A
C865 C866 1.302 . A
C866 C867 1.385 . A
C868 C869 1.312 . A
C869 C870 1.425 . A
C870 C871 1.355 . A
C871 C872 1.392 . A
C872 C873 1.486 . S
C873 C874 1.406 . A
C874 C875 1.367 . A
C875 C876 1.323 . A
C876 C877 1.399 . A
C878 C879 1.401 . A
N880 N881 1.540 . A
N880 C884 1.540 . A
N880 H886 1.110 . S
N881 C882 1.540 . A
N881 H887 1.110 . S
C882 C883 1.540 . A
C883 C884 1.540 . A
C883 H885 1.140 . S
N888 N889 1.540 . A
N888 C892 1.540 . A
N888 H894 1.110 . S
N889 C890 1.540 . A
N889 H895 1.110 . S
C890 C891 1.540 . A
C891 C892 1.540 . A
C891 H893 1.140 . S
N896 N897 1.540 . A
N896 C900 1.540 . A
N896 H902 1.110 . S
N897 C898 1.540 . A
N897 H903 1.110 . S
C898 C899 1.540 . A
C899 C900 1.540 . A
C899 H901 1.140 . S
N904 N905 1.540 . A
N904 C908 1.540 . A
N904 H910 1.110 . S
N905 C906 1.540 . A
N905 H911 1.110 . S
C906 C907 1.540 . A
C907 C908 1.540 . A
C907 H909 1.140 . S
N912 N913 1.540 . A
N912 C916 1.540 . A
N912 H918 1.110 . S
N913 C914 1.540 . A
N913 H919 1.110 . S
C914 C915 1.540 . A
C915 C916 1.540 . A
C915 H917 1.140 . S
N920 N921 1.540 . A
N920 C924 1.540 . A
N920 H926 1.110 . S
N921 C922 1.540 . A
N921 H927 1.118 . S
C922 C923 1.540 . A
C923 C924 1.540 . A
C923 H925 1.140 . S
N928 N929 1.540 . A
N928 C932 1.540 . A
N928 H934 1.110 . S
N929 C930 1.540 . A
N929 H935 1.110 . S
C930 C931 1.540 . A
C931 C932 1.540 . A
C931 H933 1.140 . S
N936 N937 1.540 . A
N936 C940 1.540 . A
N936 H942 1.110 . S
N937 C938 1.540 . A
N937 H943 1.110 . S
C938 C939 1.540 . A
C939 C940 1.540 . A
C939 H941 1.140 . S
N944 N945 1.540 . A
N944 C948 1.540 . A
N944 H950 1.110 . S
N945 C946 1.540 . A
N945 H951 1.110 . S
C946 C947 1.540 . A
C947 C948 1.540 . A
C947 H949 1.140 . S
N952 N953 1.540 . A
N952 C956 1.540 . A
N952 H958 1.110 . S
N953 C954 1.540 . A
N953 H959 1.110 . S
C954 C955 1.540 . A
C955 C956 1.540 . A
C955 H957 1.140 . S
N960 N961 1.540 . A
N960 C964 1.540 . A
N960 H966 1.110 . S
N961 C962 1.540 . A
N961 H967 1.110 . S
C962 C963 1.540 . A
C963 C964 1.540 . A
C963 H965 1.140 . S
N968 N969 1.540 . A
N968 C972 1.540 . A
N968 H974 1.110 . S
N969 C970 1.540 . A
N969 H975 1.110 . S
C970 C971 1.540 . A
C971 C972 1.540 . A
C971 H973 1.140 . S
N976 N977 1.540 . A
N976 C980 1.540 . A
N976 H982 1.110 . S
N977 C978 1.540 . A
N977 H983 1.110 . S
C978 C979 1.540 . A
C979 C980 1.540 . A
C979 H981 1.140 . S
N984 N985 1.540 . A
N984 C988 1.540 . A
N984 H990 1.110 . S
N985 C986 1.540 . A
N985 H991 1.110 . S
C986 C987 1.540 . A
C987 C988 1.540 . A
C987 H989 1.140 . S
N992 N993 1.540 . A
N992 C996 1.540 . A
N992 H998 1.110 . S
N993 C994 1.540 . A
N993 H999 1.110 . S
C994 C995 1.540 . A
C995 C996 1.540 . A
C995 H997 1.140 . S
N1000 N1001 1.540 . A
N1000 C1004 1.540 . A
N1000 H1006 1.110 . S
N1001 C1002 1.540 . A
N1001 H1007 1.110 . S
C1002 C1003 1.540 . A
C1003 C1004 1.540 . A
C1003 H1005 1.140 . S
N1008 N1009 1.540 . A
N1008 C1012 1.540 . A
N1008 H1014 1.110 . S
N1009 C1010 1.540 . A
N1009 H1015 1.110 . S
C1010 C1011 1.540 . A
C1011 C1012 1.540 . A
C1011 H1013 1.140 . S
N1016 N1017 1.540 1_655 A
N1016 C1020 1.540 . A
N1016 H1022 1.110 . S
N1017 C1018 1.540 . A
N1017 H1023 1.110 . S
C1018 C1019 1.540 . A
C1019 C1020 1.540 1_455 A
C1019 H1021 1.140 1_554 S
N1024 N1025 1.540 . A
N1024 C1028 1.540 . A
N1024 H1030 1.110 . S
N1025 C1026 1.540 . A
N1025 H1031 1.110 . S
C1026 C1027 1.540 . A
C1027 C1028 1.540 . A
C1027 H1029 1.140 . S
N1032 N1033 1.540 1_655 A
N1032 C1036 1.540 . A
N1032 H1038 1.110 . S
N1033 C1034 1.540 . A
N1033 H1039 1.110 . S
C1034 C1035 1.560 . A
C1035 C1036 1.519 1_455 A
C1035 H1037 1.144 1_556 S
N1040 N1041 1.540 . A
N1040 C1044 1.540 . A
N1040 H1046 1.110 . S
N1041 C1042 1.540 . A
N1041 H1047 1.110 . S
C1042 C1043 1.540 . A
C1043 C1044 1.540 . A
C1043 H1045 1.140 . S
N1048 N1049 1.540 . A
N1048 C1052 1.540 . A
N1048 H1054 1.110 . S
N1049 C1050 1.540 . A
N1049 H1055 1.110 . S
C1050 C1051 1.540 . A
C1051 C1052 1.540 . A
C1051 H1053 1.140 . S
N1056 N1057 1.540 . A
N1056 C1060 1.540 . A
N1056 H1062 1.110 . S
N1057 C1058 1.540 . A
N1057 H1063 1.110 . S
C1058 C1059 1.540 . A
C1059 C1060 1.540 . A
C1059 H1061 1.140 . S
N1064 N1065 1.540 . A
N1064 C1068 1.540 . A
N1064 H1070 1.110 . S
N1065 C1066 1.540 . A
N1065 H1071 1.110 . S
C1066 C1067 1.540 . A
C1067 C1068 1.540 . A
C1067 H1069 1.140 . S
N1072 N1073 1.540 . A
N1072 C1076 1.540 . A
N1072 H1078 1.110 . S
N1073 C1074 1.540 . A
N1073 H1079 1.110 . S
C1074 C1075 1.540 . A
C1075 C1076 1.540 . A
C1075 H1077 1.140 . S
N1080 N1081 1.540 1_455 A
N1080 C1084 1.540 . A
N1080 H1086 1.110 . S
N1081 C1082 1.540 . A
N1081 H1087 1.110 . S
C1082 C1083 1.530 1_655 A
C1083 C1084 1.550 . A
C1083 H1085 1.139 1_456 S
N1088 N1089 1.540 . A
N1088 C1092 1.540 . A
N1088 H1094 1.110 . S
N1089 C1090 1.540 . A
N1089 H1095 1.110 . S
C1090 C1091 1.540 . A
C1091 C1092 1.540 . A
C1091 H1093 1.140 . S
N1096 N1097 1.540 . A
N1096 C1100 1.540 . A
N1096 H1102 1.110 . S
N1097 C1098 1.540 . A
N1097 H1103 1.110 . S
C1098 C1099 1.540 . A
C1099 C1100 1.540 . A
C1099 H1101 1.140 . S
N1104 N1105 1.540 . A
N1104 C1108 1.540 . A
N1104 H1110 1.110 . S
N1105 C1106 1.540 . A
N1105 H1111 1.110 . S
C1106 C1107 1.540 . A
C1107 C1108 1.540 . A
C1107 H1109 1.140 . S
N1112 N1113 1.540 . A
N1112 C1116 1.540 . A
N1112 H1118 1.110 . S
N1113 C1114 1.540 . A
N1113 H1119 1.110 . S
C1114 C1115 1.540 . A
C1115 C1116 1.540 . A
C1115 H1117 1.140 . S
N1120 N1121 1.540 . A
N1120 C1124 1.540 . A
N1120 H1126 1.110 . S
N1121 C1122 1.540 . A
N1121 H1127 1.110 . S
C1122 C1123 1.540 . A
C1123 C1124 1.540 . A
C1123 H1125 1.140 . S
N1128 N1129 1.540 1_455 A
N1128 C1132 1.540 . A
N1128 H1134 1.110 . S
N1129 C1130 1.540 . A
N1129 H1135 1.110 . S
C1130 C1131 1.543 1_655 A
C1131 C1132 1.537 . A
C1131 H1133 1.140 1_454 S
N1136 N1137 1.540 . A
N1136 C1140 1.540 . A
N1136 H1142 1.110 . S
N1137 C1138 1.540 . A
N1137 H1143 1.110 . S
C1138 C1139 1.540 . A
C1139 C1140 1.540 . A
C1139 H1141 1.140 . S
N1144 N1145 1.540 . A
N1144 C1148 1.540 . A
N1144 H1150 1.110 . S
N1145 C1146 1.540 . A
N1145 H1151 1.110 . S
C1146 C1147 1.540 . A
C1147 C1148 1.540 . A
C1147 H1149 1.140 . S
N1152 N1153 1.540 1_554 A
N1152 C1156 1.540 . A
N1152 H1158 1.110 . S
N1153 C1154 1.540 . A
N1153 H1159 1.110 . S
C1154 C1155 1.540 . A
C1155 C1156 1.540 1_556 A
C1155 H1157 1.140 . S
N1160 N1161 1.540 . A
N1160 C1164 1.540 . A
N1160 H1166 1.110 . S
N1161 C1162 1.540 . A
N1161 H1167 1.110 . S
C1162 C1163 1.540 . A
C1163 C1164 1.540 . A
C1163 H1165 1.140 . S
N1168 N1169 1.540 . A
N1168 C1172 1.540 1_556 A
N1168 H1174 1.110 . S
N1169 C1170 1.540 . A
N1169 H1175 1.110 . S
C1170 C1171 1.540 1_556 A
C1171 C1172 1.540 . A
C1171 H1173 1.140 . S
N1176 N1177 1.540 . A
N1176 C1180 1.540 . A
N1176 H1182 1.110 . S
N1177 C1178 1.540 . A
N1177 H1183 1.110 . S
C1178 C1179 1.540 . A
C1179 C1180 1.540 . A
C1179 H1181 1.140 . S
N1184 N1185 1.540 . A
N1184 C1188 1.540 . A
N1184 H1190 1.110 . S
N1185 C1186 1.540 . A
N1185 H1191 1.110 . S
C1186 C1187 1.540 . A
C1187 C1188 1.540 . A
C1187 H1189 1.140 . S
N1192 N1193 1.540 1_546 A
N1192 C1196 1.540 . A
N1192 H1198 1.110 . S
N1193 C1194 1.540 . A
N1193 H1199 1.110 . S
C1194 C1195 1.546 . A
C1195 C1196 1.534 1_564 A
C1195 H1197 1.141 1_554 S
N1200 N1201 1.540 . A
N1200 C1204 1.540 . A
N1200 H1206 1.110 . S
N1201 C1202 1.540 . A
N1201 H1207 1.110 . S
C1202 C1203 1.540 . A
C1203 C1204 1.540 . A
C1203 H1205 1.140 . S
N1208 N1209 1.540 . A
N1208 C1212 1.540 . A
N1208 H1214 1.110 . S
N1209 C1210 1.540 . A
N1209 H1215 1.110 . S
C1210 C1211 1.540 . A
C1211 C1212 1.540 . A
C1211 H1213 1.140 . S
N1216 N1217 1.540 1_545 A
N1216 C1220 1.540 . A
N1216 H1222 1.110 . S
N1217 C1218 1.540 . A
N1217 H1223 1.110 . S
C1218 C1219 1.536 1_565 A
C1219 C1220 1.544 . A
C1219 H1221 1.140 1_545 S
N1224 N1225 1.540 . A
N1224 C1228 1.540 . A
N1224 H1230 1.110 . S
N1225 C1226 1.540 . A
N1225 H1231 1.110 . S
C1226 C1227 1.540 . A
C1227 C1228 1.540 . A
C1227 H1229 1.140 . S
N1232 N1233 1.540 1_545 A
N1232 C1236 1.540 1_554 A
N1232 H1238 1.110 1_554 S
N1233 C1234 1.540 . A
N1233 H1239 1.110 . S
C1234 C1235 1.540 . A
C1235 C1236 1.540 1_564 A
C1235 H1237 1.140 . S
N1240 N1241 1.540 . A
N1240 C1244 1.540 . A
N1240 H1246 1.110 . S
N1241 C1242 1.540 . A
N1241 H1247 1.110 . S
C1242 C1243 1.540 . A
C1243 C1244 1.540 . A
C1243 H1245 1.140 . S
N1248 N1249 1.540 1_545 A
N1248 C1252 1.540 . A
N1248 H1254 1.110 . S
N1249 C1250 1.540 . A
N1249 H1255 1.110 . S
C1250 C1251 1.540 1_565 A
C1251 C1252 1.540 . A
C1251 H1253 1.140 . S
N1256 N1257 1.540 . A
N1256 C1260 1.540 . A
N1256 H1262 1.110 . S
N1257 C1258 1.540 . A
N1257 H1263 1.110 . S
C1258 C1259 1.540 . A
C1259 C1260 1.540 . A
C1259 H1261 1.140 . S
C882 C40 1.420 . S
C884 C0 1.448 1_556 S
C890 C95 1.441 . S
C892 C55 1.404 . S
C898 C150 1.345 . S
C900 C110 1.531 . S
C906 C205 1.417 . S
C908 C165 1.464 . S
C914 C220 1.344 . S
C916 C260 1.523 . S
C922 C315 1.343 1_556 S
C924 C275 1.529 . S
C930 C330 1.399 1_554 S
C932 C370 1.437 . S
C938 C425 1.350 . S
C940 C385 1.532 . S
C946 C440 1.325 . S
C948 C480 1.510 . S
C954 C535 1.382 . S
C956 C495 1.471 1_556 S
C962 C590 1.349 . S
C964 C550 1.536 . S
C970 C645 1.523 1_554 S
C972 C605 1.336 . S
C978 C660 1.533 . S
C980 C700 1.347 1_554 S
C986 C715 1.415 . S
C988 C755 1.421 . S
C994 C810 1.408 . S
C996 C770 1.473 1_554 S
C1002 C825 1.352 1_556 S
C1004 C865 1.489 . S
C1010 C325 1.550 . S
C1012 C45 1.618 . S
C1018 C105 1.538 . S
C1020 C485 1.655 . S
C1026 C160 1.565 . S
C1028 C490 1.563 . S
C1034 C765 1.550 . S
C1036 C215 1.539 . S
C1042 C270 1.551 . S
C1044 C760 1.695 . S
C1050 C875 1.565 . S
C1052 C320 1.674 . S
C1058 C375 1.592 . S
C1060 C710 1.529 . S
C1066 C100 1.611 . S
C1068 C435 1.543 . S
C1074 C540 1.594 . S
C1076 C870 1.604 . S
C1082 C595 1.665 . S
C1084 C265 1.667 . S
C1090 C650 1.645 . S
C1092 C705 1.647 . S
C1098 C210 1.625 . S
C1100 C600 1.562 . S
C1106 C655 1.546 . S
C1108 C815 1.609 . S
C1114 C50 1.564 . S
C1116 C545 1.562 . S
C1122 C820 1.547 . S
C1124 C380 1.551 . S
C1130 C155 1.634 . S
C1132 C430 1.638 . S
C1138 C35 1.676 . S
C1140 C805 1.678 . S
C1146 C833 1.486 . S
C1148 C63 1.499 . S
C1154 C558 1.449 . S
C1156 C118 1.451 . S
C1162 C640 1.595 . S
C1164 C173 1.486 . S
C1170 C228 1.484 . S
C1172 C393 1.483 . S
C1178 C475 1.665 . S
C1180 C310 1.588 . S
C1186 C365 1.685 . S
C1188 C530 1.599 . S
C1194 C90 1.663 . S
C1196 C750 1.659 . S
C1202 C778 1.469 . S
C1204 C585 1.587 . S
C1210 C695 1.675 . S
C1212 C723 1.472 . S
C1218 C283 1.504 . S
C1220 C613 1.505 . S
C1226 C255 1.688 . S
C1228 C338 1.484 . S
C1234 C448 1.493 . S
C1236 C200 1.693 . S
C1242 C420 1.656 . S
C1244 C503 1.454 . S
C1250 C860 1.608 . S
C1252 C668 1.420 . S
C1258 C8 1.510 . S
C1260 C145 1.614 . S
