# Generated by pormake.
# Topology umb, (4)-cn, num edge types: 1
# Building blocks:
#     Node 0, Type 0, BuildingBlock: N449, # of connection points: 4
#     Node 1, Type 0, BuildingBlock: N449, # of connection points: 4
#     Node 2, Type 0, BuildingBlock: N449, # of connection points: 4
#     Node 3, Type 0, BuildingBlock: N449, # of connection points: 4
#     Node 4, Type 0, BuildingBlock: N449, # of connection points: 4
#     Node 5, Type 0, BuildingBlock: N449, # of connection points: 4
#     Node 6, Type 0, BuildingBlock: N449, # of connection points: 4
#     Node 7, Type 0, BuildingBlock: N449, # of connection points: 4
#     Node 8, Type 0, BuildingBlock: N449, # of connection points: 4
#     Node 9, Type 0, BuildingBlock: N449, # of connection points: 4
#     Node 10, Type 0, BuildingBlock: N449, # of connection points: 4
#     Node 11, Type 0, BuildingBlock: N449, # of connection points: 4
#     Edge 12, Type (0, 0), BuildingBlock: E38, # of connection points: 2
#     Edge 13, Type (0, 0), BuildingBlock: E38, # of connection points: 2
#     Edge 14, Type (0, 0), BuildingBlock: E38, # of connection points: 2
#     Edge 15, Type (0, 0), BuildingBlock: E38, # of connection points: 2
#     Edge 16, Type (0, 0), BuildingBlock: E38, # of connection points: 2
#     Edge 17, Type (0, 0), BuildingBlock: E38, # of connection points: 2
#     Edge 18, Type (0, 0), BuildingBlock: E38, # of connection points: 2
#     Edge 19, Type (0, 0), BuildingBlock: E38, # of connection points: 2
#     Edge 20, Type (0, 0), BuildingBlock: E38, # of connection points: 2
#     Edge 21, Type (0, 0), BuildingBlock: E38, # of connection points: 2
#     Edge 22, Type (0, 0), BuildingBlock: E38, # of connection points: 2
#     Edge 23, Type (0, 0), BuildingBlock: E38, # of connection points: 2
#     Edge 24, Type (0, 0), BuildingBlock: E38, # of connection points: 2
#     Edge 25, Type (0, 0), BuildingBlock: E38, # of connection points: 2
#     Edge 26, Type (0, 0), BuildingBlock: E38, # of connection points: 2
#     Edge 27, Type (0, 0), BuildingBlock: E38, # of connection points: 2
#     Edge 28, Type (0, 0), BuildingBlock: E38, # of connection points: 2
#     Edge 29, Type (0, 0), BuildingBlock: E38, # of connection points: 2
#     Edge 30, Type (0, 0), BuildingBlock: E38, # of connection points: 2
#     Edge 31, Type (0, 0), BuildingBlock: E38, # of connection points: 2
#     Edge 32, Type (0, 0), BuildingBlock: E38, # of connection points: 2
#     Edge 33, Type (0, 0), BuildingBlock: E38, # of connection points: 2
#     Edge 34, Type (0, 0), BuildingBlock: E38, # of connection points: 2
#     Edge 35, Type (0, 0), BuildingBlock: E38, # of connection points: 2
# Relax obj value: 0.263
# Max RMSD: 0.378
# Mean RMSD: 0.354
data_umb+N449+E38
_symmetry_space_group_name_H-M    P1
_symmetry_Int_Tables_number       1
_symmetry_cell_setting            triclinic
loop_
_symmetry_equiv_pos_as_xyz
'x, y, z'
_cell_length_a     52.691
_cell_length_b     53.906
_cell_length_c     40.082
_cell_angle_alpha  90.000
_cell_angle_beta   90.000
_cell_angle_gamma  119.300
loop_
_atom_site_label
_atom_site_type_symbol
_atom_site_fract_x
_atom_site_fract_y
_atom_site_fract_z
_atom_type_partial_charge
C0 C 0.65005 0.22270 0.68205 0.00000
C1 C 0.66788 0.24815 0.69798 0.00000
C2 C 0.69330 0.25173 0.71313 0.00000
C3 C 0.69901 0.22924 0.71270 0.00000
C4 C 0.68009 0.20412 0.69630 0.00000
C5 C 0.62106 0.13759 0.58646 0.00000
C6 C 0.60943 0.11578 0.56356 0.00000
C7 C 0.58827 0.08911 0.57345 0.00000
C8 C 0.57952 0.08512 0.60688 0.00000
C9 C 0.59203 0.10738 0.62906 0.00000
H10 H 0.63260 0.22019 0.67205 0.00000
H11 H 0.70640 0.26923 0.72352 0.00000
H12 H 0.68396 0.18870 0.69641 0.00000
H13 H 0.63550 0.15592 0.57923 0.00000
H14 H 0.57977 0.07384 0.55797 0.00000
H15 H 0.58635 0.10430 0.65184 0.00000
N16 N 0.65611 0.20135 0.68001 0.00000
N17 N 0.61280 0.13414 0.61861 0.00000
Pd18 Pd 0.63322 0.16716 0.65050 0.00000
Cl19 Cl 0.63216 0.19744 0.61012 0.00000
Cl20 Cl 0.63533 0.13753 0.69004 0.00000
C21 C 0.49074 0.62342 0.93715 0.00000
C22 C 0.49514 0.60560 0.91602 0.00000
C23 C 0.49571 0.58205 0.92962 0.00000
C24 C 0.49299 0.57814 0.96385 0.00000
C25 C 0.48871 0.59695 0.98374 0.00000
C26 C 0.42945 0.65232 0.02856 0.00000
C27 C 0.41685 0.66375 0.04904 0.00000
C28 C 0.43410 0.68590 0.07003 0.00000
C29 C 0.46411 0.69585 0.06995 0.00000
C30 C 0.47576 0.68353 0.04948 0.00000
H31 H 0.49066 0.63961 0.92789 0.00000
H32 H 0.49792 0.56898 0.91568 0.00000
H33 H 0.48719 0.59434 0.00719 0.00000
H34 H 0.41730 0.63717 0.01404 0.00000
H35 H 0.42587 0.69427 0.08413 0.00000
H36 H 0.49608 0.69007 0.05011 0.00000
N37 N 0.48661 0.61904 0.97005 0.00000
N38 N 0.45824 0.66171 0.02807 0.00000
Pd39 Pd 0.47390 0.64163 0.99990 0.00000
Cl40 Cl 0.44263 0.63887 0.95667 0.00000
Cl41 Cl 0.50404 0.64332 0.04118 0.00000
C42 C 0.42750 0.77737 0.31791 0.00000
C43 C 0.41988 0.75193 0.30198 0.00000
C44 C 0.44174 0.74838 0.28683 0.00000
C45 C 0.46996 0.77090 0.28727 0.00000
C46 C 0.47615 0.79601 0.30366 0.00000
C47 C 0.48363 0.86251 0.41349 0.00000
C48 C 0.49381 0.88432 0.43639 0.00000
C49 C 0.49931 0.91098 0.42650 0.00000
C50 C 0.49455 0.91495 0.39306 0.00000
C51 C 0.48480 0.89269 0.37088 0.00000
H52 H 0.41254 0.77985 0.32791 0.00000
H53 H 0.43735 0.73090 0.27644 0.00000
H54 H 0.49544 0.81145 0.30355 0.00000
H55 H 0.47974 0.84419 0.42072 0.00000
H56 H 0.50608 0.92625 0.44197 0.00000
H57 H 0.48218 0.89576 0.34810 0.00000
N58 N 0.45492 0.79874 0.31994 0.00000
N59 N 0.47881 0.86595 0.38134 0.00000
Pd60 Pd 0.46622 0.83293 0.34945 0.00000
Cl61 Cl 0.43487 0.80263 0.38984 0.00000
Cl62 Cl 0.49796 0.86258 0.30991 0.00000
C63 C 0.64877 0.42051 0.64733 0.00000
C64 C 0.66643 0.41225 0.63077 0.00000
C65 C 0.69131 0.43303 0.61477 0.00000
C66 C 0.69663 0.46086 0.61505 0.00000
C67 C 0.67790 0.46773 0.63212 0.00000
C68 C 0.62116 0.47814 0.74400 0.00000
C69 C 0.60989 0.48884 0.76732 0.00000
C70 C 0.58822 0.49478 0.75819 0.00000
C71 C 0.57860 0.48991 0.72507 0.00000
C72 C 0.59078 0.47962 0.70245 0.00000
H73 H 0.63167 0.40628 0.65792 0.00000
H74 H 0.70431 0.42817 0.60391 0.00000
H75 H 0.68149 0.48676 0.63191 0.00000
H76 H 0.63596 0.47395 0.75071 0.00000
H77 H 0.57995 0.50192 0.77397 0.00000
H78 H 0.58450 0.47692 0.67987 0.00000
N79 N 0.65449 0.44755 0.64921 0.00000
N80 N 0.61208 0.47322 0.71215 0.00000
Pd81 Pd 0.63202 0.45977 0.67953 0.00000
Cl82 Cl 0.63251 0.42917 0.71988 0.00000
Cl83 Cl 0.63261 0.49073 0.63999 0.00000
C84 C 0.35123 0.57950 0.64733 0.00000
C85 C 0.33356 0.58775 0.63077 0.00000
C86 C 0.30868 0.56698 0.61477 0.00000
C87 C 0.30336 0.53914 0.61505 0.00000
C88 C 0.32210 0.53227 0.63212 0.00000
C89 C 0.37883 0.52186 0.74400 0.00000
C90 C 0.39011 0.51116 0.76732 0.00000
C91 C 0.41178 0.50522 0.75819 0.00000
C92 C 0.42139 0.51009 0.72507 0.00000
C93 C 0.40922 0.52038 0.70245 0.00000
H94 H 0.36832 0.59372 0.65792 0.00000
H95 H 0.29569 0.57183 0.60391 0.00000
H96 H 0.31851 0.51324 0.63190 0.00000
H97 H 0.36403 0.52605 0.75071 0.00000
H98 H 0.42005 0.49808 0.77397 0.00000
H99 H 0.41550 0.52308 0.67987 0.00000
N100 N 0.34550 0.55245 0.64921 0.00000
N101 N 0.38792 0.52679 0.71215 0.00000
Pd102 Pd 0.36797 0.54024 0.67953 0.00000
Cl103 Cl 0.36749 0.57083 0.71988 0.00000
Cl104 Cl 0.36739 0.50928 0.63999 0.00000
C105 C 0.86721 0.37663 0.06286 0.00000
C106 C 0.88944 0.39445 0.08399 0.00000
C107 C 0.91359 0.41801 0.07040 0.00000
C108 C 0.91478 0.42191 0.03617 0.00000
C109 C 0.89168 0.40310 0.01627 0.00000
C110 C 0.77699 0.34771 0.97143 0.00000
C111 C 0.75294 0.33628 0.95095 0.00000
C112 C 0.74803 0.31412 0.92995 0.00000
C113 C 0.76808 0.30419 0.93003 0.00000
C114 C 0.79206 0.31651 0.95051 0.00000
H115 H 0.85092 0.36044 0.07212 0.00000
H116 H 0.92888 0.43108 0.08434 0.00000
H117 H 0.89278 0.40572 0.99283 0.00000
H118 H 0.78000 0.36285 0.98595 0.00000
H119 H 0.73142 0.30575 0.91585 0.00000
H120 H 0.80584 0.30998 0.94989 0.00000
N121 N 0.86746 0.38101 0.02996 0.00000
N122 N 0.79637 0.33832 0.97192 0.00000
Pd123 Pd 0.83214 0.35842 0.00010 0.00000
Cl124 Cl 0.80362 0.36116 0.04333 0.00000
Cl125 Cl 0.86060 0.35673 0.95883 0.00000
C126 C 0.57250 0.22263 0.31791 0.00000
C127 C 0.58011 0.24807 0.30198 0.00000
C128 C 0.55826 0.25162 0.28683 0.00000
C129 C 0.53004 0.22910 0.28727 0.00000
C130 C 0.52385 0.20399 0.30366 0.00000
C131 C 0.51637 0.13749 0.41349 0.00000
C132 C 0.50618 0.11568 0.43639 0.00000
C133 C 0.50069 0.08903 0.42650 0.00000
C134 C 0.50545 0.08505 0.39306 0.00000
C135 C 0.51520 0.10731 0.37088 0.00000
H136 H 0.58746 0.22015 0.32791 0.00000
H137 H 0.56265 0.26911 0.27644 0.00000
H138 H 0.50456 0.18855 0.30355 0.00000
H139 H 0.52026 0.15581 0.42072 0.00000
H140 H 0.49392 0.07375 0.44197 0.00000
H141 H 0.51781 0.10424 0.34810 0.00000
N142 N 0.54508 0.20126 0.31994 0.00000
N143 N 0.52118 0.13405 0.38134 0.00000
Pd144 Pd 0.53378 0.16707 0.34945 0.00000
Cl145 Cl 0.56513 0.19738 0.38984 0.00000
Cl146 Cl 0.50204 0.13742 0.30991 0.00000
C147 C 0.13279 0.62337 0.06286 0.00000
C148 C 0.11056 0.60555 0.08399 0.00000
C149 C 0.08641 0.58199 0.07040 0.00000
C150 C 0.08522 0.57809 0.03617 0.00000
C151 C 0.10832 0.59690 0.01627 0.00000
C152 C 0.22300 0.65229 0.97143 0.00000
C153 C 0.24705 0.66373 0.95095 0.00000
C154 C 0.25197 0.68588 0.92995 0.00000
C155 C 0.23192 0.69582 0.93003 0.00000
C156 C 0.20794 0.68349 0.95051 0.00000
H157 H 0.14908 0.63956 0.07212 0.00000
H158 H 0.07112 0.56893 0.08434 0.00000
H159 H 0.10722 0.59429 0.99283 0.00000
H160 H 0.22000 0.63715 0.98595 0.00000
H161 H 0.26858 0.69425 0.91585 0.00000
H162 H 0.19416 0.69003 0.94989 0.00000
N163 N 0.13254 0.61900 0.02996 0.00000
N164 N 0.20363 0.66168 0.97192 0.00000
Pd165 Pd 0.16785 0.64159 0.00010 0.00000
Cl166 Cl 0.19638 0.63884 0.04333 0.00000
Cl167 Cl 0.13939 0.64327 0.95883 0.00000
C168 C 0.77165 0.42052 0.35261 0.00000
C169 C 0.74572 0.41226 0.36917 0.00000
C170 C 0.74164 0.43303 0.38518 0.00000
C171 C 0.76417 0.46086 0.38489 0.00000
C172 C 0.78980 0.46775 0.36782 0.00000
C173 C 0.85696 0.47818 0.25594 0.00000
C174 C 0.87895 0.48889 0.23261 0.00000
C175 C 0.90657 0.49485 0.24174 0.00000
C176 C 0.91131 0.48998 0.27486 0.00000
C177 C 0.88883 0.47968 0.29749 0.00000
H178 H 0.77451 0.40630 0.34202 0.00000
H179 H 0.72378 0.42816 0.39603 0.00000
H180 H 0.80525 0.48678 0.36804 0.00000
H181 H 0.83796 0.47399 0.24923 0.00000
H182 H 0.92199 0.50199 0.22596 0.00000
H183 H 0.89242 0.47699 0.32006 0.00000
N184 N 0.79300 0.44757 0.35074 0.00000
N185 N 0.86112 0.47327 0.28779 0.00000
Pd186 Pd 0.82770 0.45980 0.32041 0.00000
Cl187 Cl 0.79659 0.42920 0.28006 0.00000
Cl188 Cl 0.85811 0.49077 0.35995 0.00000
C189 C 0.34995 0.77730 0.68205 0.00000
C190 C 0.33212 0.75185 0.69798 0.00000
C191 C 0.30670 0.74826 0.71313 0.00000
C192 C 0.30099 0.77076 0.71270 0.00000
C193 C 0.31991 0.79587 0.69630 0.00000
C194 C 0.37894 0.86241 0.58646 0.00000
C195 C 0.39057 0.88422 0.56356 0.00000
C196 C 0.41173 0.91089 0.57345 0.00000
C197 C 0.42048 0.91487 0.60688 0.00000
C198 C 0.40797 0.89262 0.62906 0.00000
H199 H 0.36740 0.77981 0.67205 0.00000
H200 H 0.29361 0.73077 0.72352 0.00000
H201 H 0.31604 0.81129 0.69641 0.00000
H202 H 0.36450 0.84408 0.57923 0.00000
H203 H 0.42023 0.92616 0.55797 0.00000
H204 H 0.41366 0.89569 0.65184 0.00000
N205 N 0.34389 0.79864 0.68001 0.00000
N206 N 0.38720 0.86586 0.61861 0.00000
Pd207 Pd 0.36678 0.83284 0.65050 0.00000
Cl208 Cl 0.36784 0.80256 0.61012 0.00000
Cl209 Cl 0.36468 0.86246 0.69004 0.00000
C210 C 0.50926 0.37658 0.93715 0.00000
C211 C 0.50487 0.39440 0.91602 0.00000
C212 C 0.50430 0.41795 0.92962 0.00000
C213 C 0.50702 0.42185 0.96385 0.00000
C214 C 0.51130 0.40304 0.98374 0.00000
C215 C 0.57055 0.34768 0.02856 0.00000
C216 C 0.58316 0.33625 0.04904 0.00000
C217 C 0.56590 0.31410 0.07003 0.00000
C218 C 0.53590 0.30415 0.06995 0.00000
C219 C 0.52425 0.31647 0.04948 0.00000
H220 H 0.50934 0.36039 0.92789 0.00000
H221 H 0.50209 0.43101 0.91568 0.00000
H222 H 0.51282 0.40566 0.00719 0.00000
H223 H 0.58270 0.36282 0.01403 0.00000
H224 H 0.57413 0.30573 0.08413 0.00000
H225 H 0.50392 0.30993 0.05011 0.00000
N226 N 0.51339 0.38095 0.97005 0.00000
N227 N 0.54177 0.33828 0.02807 0.00000
Pd228 Pd 0.52610 0.35837 0.99990 0.00000
Cl229 Cl 0.55737 0.36113 0.95667 0.00000
Cl230 Cl 0.49596 0.35667 0.04118 0.00000
C231 C 0.22835 0.57948 0.35261 0.00000
C232 C 0.25428 0.58774 0.36918 0.00000
C233 C 0.25837 0.56697 0.38518 0.00000
C234 C 0.23583 0.53914 0.38489 0.00000
C235 C 0.21021 0.53225 0.36782 0.00000
C236 C 0.14305 0.52181 0.25594 0.00000
C237 C 0.12105 0.51110 0.23261 0.00000
C238 C 0.09343 0.50515 0.24174 0.00000
C239 C 0.08869 0.51002 0.27486 0.00000
C240 C 0.11117 0.52032 0.29749 0.00000
H241 H 0.22549 0.59370 0.34202 0.00000
H242 H 0.27622 0.57184 0.39604 0.00000
H243 H 0.19475 0.51322 0.36804 0.00000
H244 H 0.16204 0.52601 0.24923 0.00000
H245 H 0.07801 0.49801 0.22596 0.00000
H246 H 0.10759 0.52301 0.32007 0.00000
N247 N 0.20700 0.55243 0.35074 0.00000
N248 N 0.13888 0.52673 0.28779 0.00000
Pd249 Pd 0.17230 0.54020 0.32041 0.00000
Cl250 Cl 0.20341 0.57080 0.28006 0.00000
Cl251 Cl 0.14189 0.50923 0.35995 0.00000
C252 C 0.52218 0.11886 0.46947 0.00000
C253 C 0.54701 0.11889 0.48977 0.00000
C254 C 0.57182 0.11891 0.51010 0.00000
C255 C 0.59662 0.11893 0.53045 0.00000
C256 C 0.47572 0.58986 0.87671 0.00000
C257 C 0.45192 0.56878 0.85302 0.00000
C258 C 0.42813 0.54770 0.82931 0.00000
C259 C 0.40435 0.52664 0.80556 0.00000
C260 C 0.40340 0.88108 0.53048 0.00000
C261 C 0.42823 0.88111 0.51018 0.00000
C262 C 0.45304 0.88113 0.48985 0.00000
C263 C 0.47784 0.88115 0.46950 0.00000
C264 C 0.52426 0.41012 0.87669 0.00000
C265 C 0.54803 0.43120 0.85295 0.00000
C266 C 0.57182 0.45227 0.82924 0.00000
C267 C 0.59563 0.47335 0.80554 0.00000
C268 C 0.87771 0.47342 0.19451 0.00000
C269 C 0.88043 0.45234 0.17082 0.00000
C270 C 0.88312 0.43126 0.14712 0.00000
C271 C 0.88579 0.41018 0.12340 0.00000
C272 C 0.11421 0.58982 0.12330 0.00000
C273 C 0.11688 0.56874 0.14702 0.00000
C274 C 0.11958 0.54766 0.17073 0.00000
C275 C 0.12229 0.52659 0.19441 0.00000
C276 C 0.66385 0.28829 0.68399 0.00000
C277 C 0.66359 0.31503 0.67094 0.00000
C278 C 0.66335 0.34179 0.65789 0.00000
C279 C 0.66314 0.36856 0.64485 0.00000
C280 C 0.28959 0.65698 0.97350 0.00000
C281 C 0.31556 0.65698 0.99113 0.00000
C282 C 0.34154 0.65698 0.00873 0.00000
C283 C 0.36754 0.65698 0.02630 0.00000
C284 C 0.37572 0.71175 0.31595 0.00000
C285 C 0.34872 0.68496 0.32898 0.00000
C286 C 0.32171 0.65818 0.34202 0.00000
C287 C 0.29469 0.63142 0.35509 0.00000
C288 C 0.33613 0.71170 0.68398 0.00000
C289 C 0.33636 0.68495 0.67091 0.00000
C290 C 0.33660 0.65819 0.65786 0.00000
C291 C 0.33684 0.63143 0.64484 0.00000
C292 C 0.63247 0.34302 0.02650 0.00000
C293 C 0.65847 0.34304 0.00893 0.00000
C294 C 0.68445 0.34304 0.99133 0.00000
C295 C 0.71041 0.34303 0.97370 0.00000
C296 C 0.62428 0.28823 0.31597 0.00000
C297 C 0.65130 0.31499 0.32903 0.00000
C298 C 0.67831 0.34177 0.34208 0.00000
C299 C 0.70531 0.36856 0.35510 0.00000
C300 C 0.45777 0.95655 0.61337 0.00000
C301 C 0.48591 0.98553 0.61335 0.00000
C302 C 0.51406 0.01450 0.61335 0.00000
C303 C 0.54222 0.04346 0.61337 0.00000
C304 C 0.50411 0.45926 0.97231 0.00000
C305 C 0.50134 0.48640 0.97232 0.00000
C306 C 0.49859 0.51356 0.97232 0.00000
C307 C 0.49587 0.54073 0.97231 0.00000
C308 C 0.49887 0.95662 0.38656 0.00000
C309 C 0.49966 0.98556 0.38655 0.00000
C310 C 0.50042 0.01448 0.38655 0.00000
C311 C 0.50115 0.04339 0.38656 0.00000
C312 C 0.54175 0.49610 0.71897 0.00000
C313 C 0.51390 0.49867 0.71895 0.00000
C314 C 0.48606 0.50127 0.71895 0.00000
C315 C 0.45824 0.50388 0.71897 0.00000
C316 C 0.95507 0.45928 0.02771 0.00000
C317 C 0.98501 0.48644 0.02769 0.00000
C318 C 0.01496 0.51360 0.02769 0.00000
C319 C 0.04491 0.54074 0.02771 0.00000
C320 C 0.04564 0.50385 0.28096 0.00000
C321 C 0.01523 0.50132 0.28098 0.00000
C322 C 0.98481 0.49876 0.28098 0.00000
C323 C 0.95438 0.49617 0.28096 0.00000
C324 C 0.72496 0.24456 0.76604 0.00000
C325 C 0.73473 0.25585 0.80170 0.00000
C326 C 0.74447 0.26712 0.83737 0.00000
C327 C 0.75419 0.27837 0.87306 0.00000
C328 C 0.47605 0.72172 0.12704 0.00000
C329 C 0.47760 0.73303 0.16269 0.00000
C330 C 0.47912 0.74432 0.19834 0.00000
C331 C 0.48061 0.75559 0.23400 0.00000
C332 C 0.75003 0.47286 0.44519 0.00000
C333 C 0.74096 0.47288 0.48171 0.00000
C334 C 0.73188 0.47288 0.51823 0.00000
C335 C 0.72278 0.47286 0.55475 0.00000
C336 C 0.24996 0.52715 0.44520 0.00000
C337 C 0.25902 0.52715 0.48173 0.00000
C338 C 0.26810 0.52715 0.51825 0.00000
C339 C 0.27721 0.52716 0.55476 0.00000
C340 C 0.52397 0.27830 0.12704 0.00000
C341 C 0.52245 0.26703 0.16271 0.00000
C342 C 0.52093 0.25574 0.19837 0.00000
C343 C 0.51940 0.24443 0.23401 0.00000
C344 C 0.27504 0.75544 0.76604 0.00000
C345 C 0.26527 0.74416 0.80170 0.00000
C346 C 0.25553 0.73289 0.83737 0.00000
C347 C 0.24581 0.72163 0.87306 0.00000
loop_
_geom_bond_atom_site_label_1
_geom_bond_atom_site_label_2
_geom_bond_distance
_geom_bond_site_symmetry_2
_ccdc_geom_bond_type
C0 C1 1.382 . A
C0 H10 0.950 . S
C0 N16 1.339 . A
C1 C2 1.395 . A
C2 C3 1.385 . A
C2 H11 0.950 . S
C3 C4 1.392 . A
C4 H12 0.948 . S
C4 N16 1.364 . A
C5 C6 1.377 . A
C5 H13 0.951 . S
C5 N17 1.343 . A
C6 C7 1.378 . A
C7 C8 1.399 . A
C7 H14 0.950 . S
C8 C9 1.375 . A
C9 H15 0.950 . S
C9 N17 1.382 . A
N16 Pd18 2.019 . S
N17 Pd18 2.021 . S
Pd18 Cl19 2.319 . S
Pd18 Cl20 2.291 . S
C21 C22 1.382 . A
C21 H31 0.950 . S
C21 N37 1.339 . A
C22 C23 1.395 . A
C23 C24 1.385 . A
C23 H32 0.950 . S
C24 C25 1.392 . A
C25 H33 0.948 1_556 S
C25 N37 1.364 . A
C26 C27 1.377 . A
C26 H34 0.951 . S
C26 N38 1.343 . A
C27 C28 1.378 . A
C28 C29 1.399 . A
C28 H35 0.950 . S
C29 C30 1.375 . A
C30 H36 0.950 . S
C30 N38 1.382 . A
N37 Pd39 2.040 . S
N38 Pd39 2.001 1_554 S
Pd39 Cl40 2.345 . S
Pd39 Cl41 2.264 1_556 S
C42 C43 1.382 . A
C42 H52 0.950 . S
C42 N58 1.339 . A
C43 C44 1.395 . A
C44 C45 1.385 . A
C44 H53 0.950 . S
C45 C46 1.392 . A
C46 H54 0.948 . S
C46 N58 1.364 . A
C47 C48 1.377 . A
C47 H55 0.951 . S
C47 N59 1.343 . A
C48 C49 1.378 . A
C49 C50 1.399 . A
C49 H56 0.950 . S
C50 C51 1.375 . A
C51 H57 0.950 . S
C51 N59 1.382 . A
N58 Pd60 2.019 . S
N59 Pd60 2.021 . S
Pd60 Cl61 2.319 . S
Pd60 Cl62 2.291 . S
C63 C64 1.382 . A
C63 H73 0.950 . S
C63 N79 1.339 . A
C64 C65 1.395 . A
C65 C66 1.385 . A
C65 H74 0.950 . S
C66 C67 1.392 . A
C67 H75 0.948 . S
C67 N79 1.364 . A
C68 C69 1.377 . A
C68 H76 0.951 . S
C68 N80 1.343 . A
C69 C70 1.378 . A
C70 C71 1.399 . A
C70 H77 0.950 . S
C71 C72 1.375 . A
C72 H78 0.950 . S
C72 N80 1.382 . A
N79 Pd81 2.019 . S
N80 Pd81 2.021 . S
Pd81 Cl82 2.319 . S
Pd81 Cl83 2.291 . S
C84 C85 1.382 . A
C84 H94 0.950 . S
C84 N100 1.339 . A
C85 C86 1.395 . A
C86 C87 1.385 . A
C86 H95 0.950 . S
C87 C88 1.392 . A
C88 H96 0.948 . S
C88 N100 1.364 . A
C89 C90 1.377 . A
C89 H97 0.951 . S
C89 N101 1.343 . A
C90 C91 1.378 . A
C91 C92 1.399 . A
C91 H98 0.950 . S
C92 C93 1.375 . A
C93 H99 0.950 . S
C93 N101 1.382 . A
N100 Pd102 2.019 . S
N101 Pd102 2.021 . S
Pd102 Cl103 2.319 . S
Pd102 Cl104 2.291 . S
C105 C106 1.382 . A
C105 H115 0.950 . S
C105 N121 1.339 . A
C106 C107 1.395 . A
C107 C108 1.385 . A
C107 H116 0.950 . S
C108 C109 1.392 . A
C109 H117 0.948 1_554 S
C109 N121 1.364 . A
C110 C111 1.377 . A
C110 H118 0.951 . S
C110 N122 1.343 . A
C111 C112 1.378 . A
C112 C113 1.399 . A
C112 H119 0.950 . S
C113 C114 1.375 . A
C114 H120 0.950 . S
C114 N122 1.382 . A
N121 Pd123 2.040 . S
N122 Pd123 2.001 1_556 S
Pd123 Cl124 2.345 . S
Pd123 Cl125 2.264 1_554 S
C126 C127 1.382 . A
C126 H136 0.950 . S
C126 N142 1.339 . A
C127 C128 1.395 . A
C128 C129 1.385 . A
C128 H137 0.950 . S
C129 C130 1.392 . A
C130 H138 0.948 . S
C130 N142 1.364 . A
C131 C132 1.377 . A
C131 H139 0.951 . S
C131 N143 1.343 . A
C132 C133 1.378 . A
C133 C134 1.399 . A
C133 H140 0.950 . S
C134 C135 1.375 . A
C135 H141 0.950 . S
C135 N143 1.382 . A
N142 Pd144 2.019 . S
N143 Pd144 2.021 . S
Pd144 Cl145 2.319 . S
Pd144 Cl146 2.291 . S
C147 C148 1.382 . A
C147 H157 0.950 . S
C147 N163 1.339 . A
C148 C149 1.395 . A
C149 C150 1.385 . A
C149 H158 0.950 . S
C150 C151 1.392 . A
C151 H159 0.948 1_554 S
C151 N163 1.364 . A
C152 C153 1.377 . A
C152 H160 0.951 . S
C152 N164 1.343 . A
C153 C154 1.378 . A
C154 C155 1.399 . A
C154 H161 0.950 . S
C155 C156 1.375 . A
C156 H162 0.950 . S
C156 N164 1.382 . A
N163 Pd165 2.040 . S
N164 Pd165 2.001 1_556 S
Pd165 Cl166 2.345 . S
Pd165 Cl167 2.264 1_554 S
C168 C169 1.382 . A
C168 H178 0.950 . S
C168 N184 1.339 . A
C169 C170 1.395 . A
C170 C171 1.385 . A
C170 H179 0.950 . S
C171 C172 1.392 . A
C172 H180 0.948 . S
C172 N184 1.364 . A
C173 C174 1.377 . A
C173 H181 0.951 . S
C173 N185 1.343 . A
C174 C175 1.378 . A
C175 C176 1.399 . A
C175 H182 0.950 . S
C176 C177 1.375 . A
C177 H183 0.950 . S
C177 N185 1.382 . A
N184 Pd186 2.019 . S
N185 Pd186 2.021 . S
Pd186 Cl187 2.319 . S
Pd186 Cl188 2.291 . S
C189 C190 1.382 . A
C189 H199 0.950 . S
C189 N205 1.339 . A
C190 C191 1.395 . A
C191 C192 1.385 . A
C191 H200 0.950 . S
C192 C193 1.392 . A
C193 H201 0.948 . S
C193 N205 1.364 . A
C194 C195 1.377 . A
C194 H202 0.951 . S
C194 N206 1.343 . A
C195 C196 1.378 . A
C196 C197 1.399 . A
C196 H203 0.950 . S
C197 C198 1.375 . A
C198 H204 0.950 . S
C198 N206 1.382 . A
N205 Pd207 2.019 . S
N206 Pd207 2.021 . S
Pd207 Cl208 2.319 . S
Pd207 Cl209 2.291 . S
C210 C211 1.382 . A
C210 H220 0.950 . S
C210 N226 1.339 . A
C211 C212 1.395 . A
C212 C213 1.385 . A
C212 H221 0.950 . S
C213 C214 1.392 . A
C214 H222 0.948 1_556 S
C214 N226 1.364 . A
C215 C216 1.377 . A
C215 H223 0.951 . S
C215 N227 1.343 . A
C216 C217 1.378 . A
C217 C218 1.399 . A
C217 H224 0.950 . S
C218 C219 1.375 . A
C219 H225 0.950 . S
C219 N227 1.382 . A
N226 Pd228 2.040 . S
N227 Pd228 2.001 1_554 S
Pd228 Cl229 2.345 . S
Pd228 Cl230 2.264 1_556 S
C231 C232 1.382 . A
C231 H241 0.950 . S
C231 N247 1.339 . A
C232 C233 1.395 . A
C233 C234 1.385 . A
C233 H242 0.950 . S
C234 C235 1.392 . A
C235 H243 0.948 . S
C235 N247 1.364 . A
C236 C237 1.377 . A
C236 H244 0.951 . S
C236 N248 1.343 . A
C237 C238 1.378 . A
C238 C239 1.399 . A
C238 H245 0.950 . S
C239 C240 1.375 . A
C240 H246 0.950 . S
C240 N248 1.382 . A
N247 Pd249 2.019 . S
N248 Pd249 2.021 . S
Pd249 Cl250 2.319 . S
Pd249 Cl251 2.291 . S
C252 C253 1.540 . T
C253 C254 1.540 . S
C254 C255 1.540 . T
C256 C257 1.540 . T
C257 C258 1.540 . S
C258 C259 1.540 . T
C260 C261 1.540 . T
C261 C262 1.540 . S
C262 C263 1.540 . T
C264 C265 1.540 . T
C265 C266 1.540 . S
C266 C267 1.540 . T
C268 C269 1.540 . T
C269 C270 1.540 . S
C270 C271 1.540 . T
C272 C273 1.540 . T
C273 C274 1.540 . S
C274 C275 1.540 . T
C276 C277 1.540 . T
C277 C278 1.540 . S
C278 C279 1.540 . T
C280 C281 1.540 . T
C281 C282 1.540 1_556 S
C282 C283 1.540 . T
C284 C285 1.540 . T
C285 C286 1.540 . S
C286 C287 1.540 . T
C288 C289 1.540 . T
C289 C290 1.540 . S
C290 C291 1.540 . T
C292 C293 1.540 . T
C293 C294 1.540 1_554 S
C294 C295 1.540 . T
C296 C297 1.540 . T
C297 C298 1.540 . S
C298 C299 1.540 . T
C300 C301 1.540 . T
C301 C302 1.540 1_565 S
C302 C303 1.540 . T
C304 C305 1.540 . T
C305 C306 1.540 . S
C306 C307 1.540 . T
C308 C309 1.540 . T
C309 C310 1.540 1_565 S
C310 C311 1.540 . T
C312 C313 1.540 . T
C313 C314 1.540 . S
C314 C315 1.540 . T
C316 C317 1.540 . T
C317 C318 1.540 1_655 S
C318 C319 1.540 . T
C320 C321 1.540 . T
C321 C322 1.540 1_455 S
C322 C323 1.540 . T
C324 C325 1.540 . T
C325 C326 1.540 . S
C326 C327 1.540 . T
C328 C329 1.540 . T
C329 C330 1.540 . S
C330 C331 1.540 . T
C332 C333 1.540 . T
C333 C334 1.540 . S
C334 C335 1.540 . T
C336 C337 1.540 . T
C337 C338 1.540 . S
C338 C339 1.540 . T
C340 C341 1.540 . T
C341 C342 1.540 . S
C342 C343 1.540 . T
C344 C345 1.540 . T
C345 C346 1.540 . S
C346 C347 1.540 . T
C252 C132 1.535 . S
C255 C6 1.536 . S
C256 C22 1.844 . S
C259 C90 1.731 . S
C260 C195 1.535 . S
C263 C48 1.535 . S
C264 C211 1.844 . S
C267 C69 1.730 . S
C268 C174 1.726 . S
C271 C106 1.847 . S
C272 C148 1.844 . S
C275 C237 1.730 . S
C276 C1 2.343 . S
C279 C64 2.344 . S
C280 C153 2.602 . S
C283 C27 2.605 . S
C284 C43 2.342 . S
C287 C232 2.343 . S
C288 C190 2.343 . S
C291 C85 2.344 . S
C292 C216 2.602 . S
C295 C111 2.605 . S
C296 C127 2.342 . S
C299 C169 2.343 . S
C300 C197 2.158 . S
C303 C8 2.157 . S
C304 C213 2.123 . S
C307 C24 2.123 . S
C308 C50 2.160 . S
C311 C134 2.160 . S
C312 C71 2.139 . S
C315 C92 2.139 . S
C316 C108 2.120 . S
C319 C150 2.120 . S
C320 C239 2.140 . S
C323 C176 2.140 . S
C324 C3 2.453 . S
C327 C113 2.587 . S
C328 C29 2.592 . S
C331 C45 2.451 . S
C332 C171 2.699 . S
C335 C66 2.699 . S
C336 C234 2.699 . S
C339 C87 2.699 . S
C340 C218 2.591 . S
C343 C129 2.451 . S
C344 C192 2.453 . S
C347 C155 2.587 . S
