# Generated by pormake.
# Topology vbj, (5)-cn, num edge types: 1
# Building blocks:
#     Node 0, Type 0, BuildingBlock: N572, # of connection points: 5
#     Node 1, Type 0, BuildingBlock: N572, # of connection points: 5
#     Node 2, Type 0, BuildingBlock: N572, # of connection points: 5
#     Node 3, Type 0, BuildingBlock: N572, # of connection points: 5
#     Node 4, Type 0, BuildingBlock: N572, # of connection points: 5
#     Node 5, Type 0, BuildingBlock: N572, # of connection points: 5
#     Node 6, Type 0, BuildingBlock: N572, # of connection points: 5
#     Node 7, Type 0, BuildingBlock: N572, # of connection points: 5
#     Node 8, Type 0, BuildingBlock: N572, # of connection points: 5
#     Node 9, Type 0, BuildingBlock: N572, # of connection points: 5
#     Node 10, Type 0, BuildingBlock: N572, # of connection points: 5
#     Node 11, Type 0, BuildingBlock: N572, # of connection points: 5
#     Node 12, Type 0, BuildingBlock: N572, # of connection points: 5
#     Node 13, Type 0, BuildingBlock: N572, # of connection points: 5
#     Node 14, Type 0, BuildingBlock: N572, # of connection points: 5
#     Node 15, Type 0, BuildingBlock: N572, # of connection points: 5
#     Edge 16, Type (0, 0), BuildingBlock: E15, # of connection points: 2
#     Edge 17, Type (0, 0), BuildingBlock: E15, # of connection points: 2
#     Edge 18, Type (0, 0), BuildingBlock: E15, # of connection points: 2
#     Edge 19, Type (0, 0), BuildingBlock: E15, # of connection points: 2
#     Edge 20, Type (0, 0), BuildingBlock: E15, # of connection points: 2
#     Edge 21, Type (0, 0), BuildingBlock: E15, # of connection points: 2
#     Edge 22, Type (0, 0), BuildingBlock: E15, # of connection points: 2
#     Edge 23, Type (0, 0), BuildingBlock: E15, # of connection points: 2
#     Edge 24, Type (0, 0), BuildingBlock: E15, # of connection points: 2
#     Edge 25, Type (0, 0), BuildingBlock: E15, # of connection points: 2
#     Edge 26, Type (0, 0), BuildingBlock: E15, # of connection points: 2
#     Edge 27, Type (0, 0), BuildingBlock: E15, # of connection points: 2
#     Edge 28, Type (0, 0), BuildingBlock: E15, # of connection points: 2
#     Edge 29, Type (0, 0), BuildingBlock: E15, # of connection points: 2
#     Edge 30, Type (0, 0), BuildingBlock: E15, # of connection points: 2
#     Edge 31, Type (0, 0), BuildingBlock: E15, # of connection points: 2
#     Edge 32, Type (0, 0), BuildingBlock: E15, # of connection points: 2
#     Edge 33, Type (0, 0), BuildingBlock: E15, # of connection points: 2
#     Edge 34, Type (0, 0), BuildingBlock: E15, # of connection points: 2
#     Edge 35, Type (0, 0), BuildingBlock: E15, # of connection points: 2
#     Edge 36, Type (0, 0), BuildingBlock: E15, # of connection points: 2
#     Edge 37, Type (0, 0), BuildingBlock: E15, # of connection points: 2
#     Edge 38, Type (0, 0), BuildingBlock: E15, # of connection points: 2
#     Edge 39, Type (0, 0), BuildingBlock: E15, # of connection points: 2
#     Edge 40, Type (0, 0), BuildingBlock: E15, # of connection points: 2
#     Edge 41, Type (0, 0), BuildingBlock: E15, # of connection points: 2
#     Edge 42, Type (0, 0), BuildingBlock: E15, # of connection points: 2
#     Edge 43, Type (0, 0), BuildingBlock: E15, # of connection points: 2
#     Edge 44, Type (0, 0), BuildingBlock: E15, # of connection points: 2
#     Edge 45, Type (0, 0), BuildingBlock: E15, # of connection points: 2
#     Edge 46, Type (0, 0), BuildingBlock: E15, # of connection points: 2
#     Edge 47, Type (0, 0), BuildingBlock: E15, # of connection points: 2
#     Edge 48, Type (0, 0), BuildingBlock: E15, # of connection points: 2
#     Edge 49, Type (0, 0), BuildingBlock: E15, # of connection points: 2
#     Edge 50, Type (0, 0), BuildingBlock: E15, # of connection points: 2
#     Edge 51, Type (0, 0), BuildingBlock: E15, # of connection points: 2
#     Edge 52, Type (0, 0), BuildingBlock: E15, # of connection points: 2
#     Edge 53, Type (0, 0), BuildingBlock: E15, # of connection points: 2
#     Edge 54, Type (0, 0), BuildingBlock: E15, # of connection points: 2
#     Edge 55, Type (0, 0), BuildingBlock: E15, # of connection points: 2
# Relax obj value: 0.241
# Max RMSD: 0.225
# Mean RMSD: 0.208
data_vbj+N572+E15
_symmetry_space_group_name_H-M    P1
_symmetry_Int_Tables_number       1
_symmetry_cell_setting            triclinic
loop_
_symmetry_equiv_pos_as_xyz
'x, y, z'
_cell_length_a     16.571
_cell_length_b     41.538
_cell_length_c     34.281
_cell_angle_alpha  90.000
_cell_angle_beta   90.000
_cell_angle_gamma  90.005
loop_
_atom_site_label
_atom_site_type_symbol
_atom_site_fract_x
_atom_site_fract_y
_atom_site_fract_z
_atom_type_partial_charge
C0 C 0.01672 0.30723 0.38998 0.00000
O1 O 0.02111 0.33699 0.39553 0.00000
O2 O 0.97261 0.28907 0.41063 0.00000
Sm3 Sm 0.02000 0.39358 0.39239 0.00000
O4 O 0.15908 0.38503 0.39900 0.00000
O5 O 0.90537 0.42652 0.41564 0.00000
O6 O 0.87787 0.37582 0.40547 0.00000
C7 C 0.21677 0.38174 0.42282 0.00000
O8 O 0.94056 0.40761 0.33123 0.00000
O9 O 0.05922 0.38450 0.32529 0.00000
O10 O 0.06654 0.44569 0.38221 0.00000
O11 O 0.20943 0.38453 0.45904 0.00000
C12 C 0.99990 0.39846 0.31062 0.00000
O13 O 0.09446 0.49488 0.40227 0.00000
C14 C 0.85380 0.40476 0.41102 0.00000
C15 C 0.10587 0.47132 0.37952 0.00000
O16 O 0.04840 0.39484 0.46122 0.00000
C17 C 0.48328 0.69277 0.38998 0.00000
O18 O 0.47889 0.66301 0.39553 0.00000
O19 O 0.52739 0.71093 0.41063 0.00000
Sm20 Sm 0.48000 0.60642 0.39239 0.00000
O21 O 0.34092 0.61497 0.39900 0.00000
O22 O 0.59463 0.57348 0.41564 0.00000
O23 O 0.62213 0.62418 0.40547 0.00000
C24 C 0.28323 0.61826 0.42282 0.00000
O25 O 0.55944 0.59239 0.33123 0.00000
O26 O 0.44078 0.61549 0.32529 0.00000
O27 O 0.43346 0.55430 0.38221 0.00000
O28 O 0.29057 0.61547 0.45904 0.00000
C29 C 0.50052 0.60153 0.31062 0.00000
O30 O 0.40554 0.50512 0.40227 0.00000
C31 C 0.64620 0.59524 0.41102 0.00000
C32 C 0.39413 0.52868 0.37953 0.00000
O33 O 0.45160 0.60516 0.46122 0.00000
C34 C 0.51874 0.30742 0.90228 0.00000
O35 O 0.51702 0.33753 0.90417 0.00000
O36 O 0.58235 0.29135 0.90864 0.00000
Sm37 Sm 0.49301 0.39225 0.91765 0.00000
O38 O 0.44527 0.39015 0.85337 0.00000
O39 O 0.57618 0.42386 0.96370 0.00000
O40 O 0.58681 0.37170 0.96940 0.00000
C41 C 0.46388 0.39290 0.81775 0.00000
O42 O 0.41242 0.39317 0.98079 0.00000
O43 O 0.35580 0.37409 0.92763 0.00000
O44 O 0.43615 0.44324 0.91278 0.00000
O45 O 0.53241 0.40116 0.80599 0.00000
C46 C 0.35128 0.38314 0.96242 0.00000
O47 O 0.44389 0.49552 0.90236 0.00000
C48 C 0.59820 0.39995 0.98332 0.00000
C49 C 0.40503 0.46930 0.90232 0.00000
O50 O 0.60551 0.40557 0.87630 0.00000
C51 C 0.98328 0.19277 0.38998 0.00000
O52 O 0.97889 0.16301 0.39553 0.00000
O53 O 0.02739 0.21093 0.41063 0.00000
Sm54 Sm 0.98000 0.10642 0.39239 0.00000
O55 O 0.84092 0.11497 0.39900 0.00000
O56 O 0.09463 0.07348 0.41564 0.00000
O57 O 0.12213 0.12418 0.40547 0.00000
C58 C 0.78323 0.11826 0.42282 0.00000
O59 O 0.05944 0.09239 0.33123 0.00000
O60 O 0.94078 0.11550 0.32529 0.00000
O61 O 0.93346 0.05431 0.38221 0.00000
O62 O 0.79057 0.11547 0.45904 0.00000
C63 C 0.00010 0.10154 0.31062 0.00000
O64 O 0.90554 0.00512 0.40227 0.00000
C65 C 0.14620 0.09524 0.41102 0.00000
C66 C 0.89413 0.02868 0.37952 0.00000
O67 O 0.95160 0.10516 0.46122 0.00000
C68 C 0.01874 0.80742 0.90228 0.00000
O69 O 0.01702 0.83754 0.90417 0.00000
O70 O 0.08235 0.79135 0.90864 0.00000
Sm71 Sm 0.99301 0.89225 0.91765 0.00000
O72 O 0.94527 0.89015 0.85337 0.00000
O73 O 0.07618 0.92386 0.96370 0.00000
O74 O 0.08681 0.87170 0.96940 0.00000
C75 C 0.96388 0.89291 0.81775 0.00000
O76 O 0.91242 0.89318 0.98079 0.00000
O77 O 0.85579 0.87409 0.92763 0.00000
O78 O 0.93615 0.94324 0.91278 0.00000
O79 O 0.03241 0.90117 0.80599 0.00000
C80 C 0.85128 0.88314 0.96242 0.00000
O81 O 0.94389 0.99552 0.90236 0.00000
C82 C 0.09820 0.89995 0.98332 0.00000
C83 C 0.90503 0.96930 0.90232 0.00000
O84 O 0.10551 0.90557 0.87630 0.00000
C85 C 0.48325 0.80724 0.09611 0.00000
O86 O 0.47887 0.83699 0.09057 0.00000
O87 O 0.52736 0.78907 0.07547 0.00000
Sm88 Sm 0.47999 0.89358 0.09370 0.00000
O89 O 0.34091 0.88503 0.08709 0.00000
O90 O 0.59463 0.92653 0.07045 0.00000
O91 O 0.62212 0.87583 0.08063 0.00000
C92 C 0.28322 0.88173 0.06327 0.00000
O93 O 0.55943 0.90762 0.15487 0.00000
O94 O 0.44077 0.88451 0.16080 0.00000
O95 O 0.43347 0.94570 0.10389 0.00000
O96 O 0.29056 0.88453 0.02706 0.00000
C97 C 0.50051 0.89847 0.17547 0.00000
O98 O 0.40555 0.99488 0.08383 0.00000
C99 C 0.64619 0.90477 0.07507 0.00000
C100 C 0.39414 0.97132 0.10657 0.00000
O101 O 0.45159 0.89484 0.02488 0.00000
C102 C 0.51672 0.80723 0.38998 0.00000
O103 O 0.52111 0.83699 0.39553 0.00000
O104 O 0.47261 0.78907 0.41063 0.00000
Sm105 Sm 0.52000 0.89358 0.39239 0.00000
O106 O 0.65908 0.88503 0.39900 0.00000
O107 O 0.40537 0.92652 0.41564 0.00000
O108 O 0.37787 0.87582 0.40547 0.00000
C109 C 0.71677 0.88174 0.42282 0.00000
O110 O 0.44056 0.90761 0.33123 0.00000
O111 O 0.55922 0.88451 0.32529 0.00000
O112 O 0.56654 0.94570 0.38221 0.00000
O113 O 0.70943 0.88453 0.45904 0.00000
C114 C 0.49948 0.89847 0.31062 0.00000
O115 O 0.59446 0.99488 0.40227 0.00000
C116 C 0.35380 0.90476 0.41102 0.00000
C117 C 0.60587 0.97132 0.37953 0.00000
O118 O 0.54840 0.89484 0.46122 0.00000
C119 C 0.01675 0.19276 0.09611 0.00000
O120 O 0.02113 0.16300 0.09057 0.00000
O121 O 0.97264 0.21092 0.07547 0.00000
Sm122 Sm 0.02001 0.10641 0.09370 0.00000
O123 O 0.15909 0.11497 0.08709 0.00000
O124 O 0.90537 0.07347 0.07045 0.00000
O125 O 0.87788 0.12417 0.08063 0.00000
C126 C 0.21678 0.11826 0.06327 0.00000
O127 O 0.94057 0.09238 0.15487 0.00000
O128 O 0.05923 0.11549 0.16080 0.00000
O129 O 0.06653 0.05430 0.10389 0.00000
O130 O 0.20944 0.11547 0.02706 0.00000
C131 C 0.99990 0.10153 0.17547 0.00000
O132 O 0.09445 0.00512 0.08383 0.00000
C133 C 0.85381 0.09523 0.07507 0.00000
C134 C 0.10586 0.02868 0.10657 0.00000
O135 O 0.04841 0.10516 0.02488 0.00000
C136 C 0.48126 0.19258 0.90228 0.00000
O137 O 0.48298 0.16247 0.90417 0.00000
O138 O 0.41765 0.20865 0.90864 0.00000
Sm139 Sm 0.50699 0.10775 0.91765 0.00000
O140 O 0.55473 0.10985 0.85337 0.00000
O141 O 0.42382 0.07614 0.96370 0.00000
O142 O 0.41319 0.12830 0.96940 0.00000
C143 C 0.53612 0.10710 0.81775 0.00000
O144 O 0.58758 0.10683 0.98079 0.00000
O145 O 0.64420 0.12591 0.92763 0.00000
O146 O 0.56385 0.05676 0.91278 0.00000
O147 O 0.46759 0.09884 0.80599 0.00000
C148 C 0.64872 0.11686 0.96242 0.00000
O149 O 0.55611 0.00448 0.90236 0.00000
C150 C 0.40180 0.10005 0.98332 0.00000
C151 C 0.59497 0.03070 0.90232 0.00000
O152 O 0.39449 0.09443 0.87630 0.00000
C153 C 0.51877 0.19257 0.58380 0.00000
O154 O 0.51704 0.16246 0.58192 0.00000
O155 O 0.58238 0.20865 0.57744 0.00000
Sm156 Sm 0.49302 0.10775 0.56844 0.00000
O157 O 0.44527 0.10984 0.63272 0.00000
O158 O 0.57618 0.07614 0.52238 0.00000
O159 O 0.58683 0.12830 0.51668 0.00000
C160 C 0.46389 0.10709 0.66834 0.00000
O161 O 0.41243 0.10682 0.50530 0.00000
O162 O 0.35581 0.12590 0.55846 0.00000
O163 O 0.43615 0.05675 0.57331 0.00000
O164 O 0.53242 0.09883 0.68010 0.00000
C165 C 0.35129 0.11685 0.52367 0.00000
O166 O 0.44388 0.00447 0.58373 0.00000
C167 C 0.59820 0.10005 0.50276 0.00000
C168 C 0.40502 0.03069 0.58376 0.00000
O169 O 0.60551 0.09443 0.60979 0.00000
C170 C 0.98123 0.80742 0.58380 0.00000
O171 O 0.98296 0.83754 0.58192 0.00000
O172 O 0.91762 0.79135 0.57744 0.00000
Sm173 Sm 0.00698 0.89225 0.56844 0.00000
O174 O 0.05473 0.89015 0.63272 0.00000
O175 O 0.92382 0.92386 0.52238 0.00000
O176 O 0.91317 0.87170 0.51669 0.00000
C177 C 0.03611 0.89291 0.66834 0.00000
O178 O 0.08757 0.89318 0.50530 0.00000
O179 O 0.14419 0.87410 0.55846 0.00000
O180 O 0.06385 0.94324 0.57331 0.00000
O181 O 0.96758 0.90117 0.68010 0.00000
C182 C 0.14871 0.88315 0.52367 0.00000
O183 O 0.05612 0.99553 0.58373 0.00000
C184 C 0.90180 0.89995 0.50276 0.00000
C185 C 0.09498 0.96930 0.58376 0.00000
O186 O 0.89449 0.90557 0.60979 0.00000
C187 C 0.51675 0.69276 0.09611 0.00000
O188 O 0.52113 0.66301 0.09057 0.00000
O189 O 0.47264 0.71093 0.07547 0.00000
Sm190 Sm 0.52001 0.60642 0.09370 0.00000
O191 O 0.65909 0.61497 0.08709 0.00000
O192 O 0.40537 0.57347 0.07045 0.00000
O193 O 0.37788 0.62417 0.08063 0.00000
C194 C 0.71678 0.61827 0.06327 0.00000
O195 O 0.44057 0.59238 0.15487 0.00000
O196 O 0.55923 0.61549 0.16080 0.00000
O197 O 0.56653 0.55430 0.10389 0.00000
O198 O 0.70944 0.61547 0.02706 0.00000
C199 C 0.49949 0.60153 0.17547 0.00000
O200 O 0.59445 0.50512 0.08383 0.00000
C201 C 0.35381 0.59523 0.07507 0.00000
C202 C 0.60586 0.52868 0.10657 0.00000
O203 O 0.54841 0.60516 0.02488 0.00000
C204 C 0.98325 0.30724 0.09611 0.00000
O205 O 0.97887 0.33700 0.09057 0.00000
O206 O 0.02736 0.28908 0.07547 0.00000
Sm207 Sm 0.97999 0.39359 0.09370 0.00000
O208 O 0.84091 0.38503 0.08709 0.00000
O209 O 0.09463 0.42653 0.07045 0.00000
O210 O 0.12212 0.37583 0.08063 0.00000
C211 C 0.78322 0.38174 0.06327 0.00000
O212 O 0.05943 0.40762 0.15487 0.00000
O213 O 0.94077 0.38451 0.16080 0.00000
O214 O 0.93347 0.44570 0.10389 0.00000
O215 O 0.79056 0.38453 0.02706 0.00000
C216 C 0.00010 0.39847 0.17547 0.00000
O217 O 0.90555 0.49488 0.08383 0.00000
C218 C 0.14619 0.40477 0.07507 0.00000
C219 C 0.89414 0.47132 0.10657 0.00000
O220 O 0.95159 0.39484 0.02488 0.00000
C221 C 0.98126 0.69258 0.90228 0.00000
O222 O 0.98298 0.66246 0.90417 0.00000
O223 O 0.91765 0.70865 0.90864 0.00000
Sm224 Sm 0.00699 0.60775 0.91765 0.00000
O225 O 0.05473 0.60985 0.85337 0.00000
O226 O 0.92382 0.57614 0.96370 0.00000
O227 O 0.91319 0.62830 0.96940 0.00000
C228 C 0.03612 0.60709 0.81775 0.00000
O229 O 0.08758 0.60682 0.98079 0.00000
O230 O 0.14421 0.62591 0.92763 0.00000
O231 O 0.06385 0.55676 0.91278 0.00000
O232 O 0.96759 0.59883 0.80599 0.00000
C233 C 0.14872 0.61686 0.96242 0.00000
O234 O 0.05611 0.50448 0.90236 0.00000
C235 C 0.90180 0.60005 0.98332 0.00000
C236 C 0.09497 0.53070 0.90232 0.00000
O237 O 0.89449 0.59443 0.87630 0.00000
C238 C 0.01877 0.69258 0.58380 0.00000
O239 O 0.01704 0.66246 0.58192 0.00000
O240 O 0.08238 0.70865 0.57744 0.00000
Sm241 Sm 0.99302 0.60775 0.56844 0.00000
O242 O 0.94527 0.60985 0.63272 0.00000
O243 O 0.07618 0.57614 0.52238 0.00000
O244 O 0.08683 0.62830 0.51669 0.00000
C245 C 0.96389 0.60709 0.66834 0.00000
O246 O 0.91243 0.60682 0.50530 0.00000
O247 O 0.85581 0.62590 0.55846 0.00000
O248 O 0.93615 0.55676 0.57331 0.00000
O249 O 0.03242 0.59883 0.68010 0.00000
C250 C 0.85129 0.61685 0.52367 0.00000
O251 O 0.94388 0.50447 0.58373 0.00000
C252 C 0.09820 0.60005 0.50276 0.00000
C253 C 0.90502 0.53070 0.58376 0.00000
O254 O 0.10551 0.59443 0.60979 0.00000
C255 C 0.48123 0.30743 0.58380 0.00000
O256 O 0.48296 0.33754 0.58192 0.00000
O257 O 0.41762 0.29135 0.57744 0.00000
Sm258 Sm 0.50698 0.39225 0.56844 0.00000
O259 O 0.55473 0.39016 0.63272 0.00000
O260 O 0.42382 0.42386 0.52238 0.00000
O261 O 0.41317 0.37170 0.51668 0.00000
C262 C 0.53611 0.39291 0.66834 0.00000
O263 O 0.58757 0.39318 0.50530 0.00000
O264 O 0.64419 0.37410 0.55846 0.00000
O265 O 0.56385 0.44325 0.57331 0.00000
O266 O 0.46758 0.40117 0.68010 0.00000
C267 C 0.64871 0.38315 0.52367 0.00000
O268 O 0.55612 0.49553 0.58373 0.00000
C269 C 0.40180 0.39995 0.50276 0.00000
C270 C 0.59498 0.46931 0.58376 0.00000
O271 O 0.39449 0.40557 0.60979 0.00000
N272 N 0.31648 0.43344 0.45943 0.00000
N273 N 0.25583 0.42132 0.42872 0.00000
C274 C 0.26830 0.38480 0.42382 0.00000
C275 C 0.33666 0.37436 0.45149 0.00000
C276 C 0.36644 0.40442 0.47350 0.00000
H277 H 0.35613 0.34806 0.45267 0.00000
H278 H 0.31785 0.45932 0.46748 0.00000
H279 H 0.20899 0.43393 0.41133 0.00000
N280 N 0.21473 0.57627 0.47947 0.00000
N281 N 0.27539 0.58839 0.44876 0.00000
C282 C 0.23596 0.61652 0.42656 0.00000
C283 C 0.15095 0.62178 0.44354 0.00000
C284 C 0.13783 0.59691 0.47623 0.00000
H285 H 0.11062 0.64160 0.43131 0.00000
H286 H 0.23105 0.55590 0.49888 0.00000
H287 H 0.33740 0.58051 0.44112 0.00000
N288 N 0.13680 0.39254 0.02203 0.00000
N289 N 0.17980 0.38246 0.98412 0.00000
C290 C 0.27133 0.38607 0.99053 0.00000
C291 C 0.28490 0.39839 0.03239 0.00000
C292 C 0.20176 0.40239 0.05185 0.00000
H293 H 0.34881 0.40282 0.04348 0.00000
H294 H 0.06995 0.39176 0.02380 0.00000
H295 H 0.15646 0.37381 0.95564 0.00000
N296 N 0.77471 0.08794 0.44818 0.00000
N297 N 0.71406 0.07581 0.47888 0.00000
C298 C 0.63774 0.09684 0.47616 0.00000
C299 C 0.65122 0.12196 0.44377 0.00000
C300 C 0.73586 0.11646 0.42648 0.00000
H301 H 0.60195 0.14020 0.43669 0.00000
H302 H 0.83436 0.07605 0.44513 0.00000
H303 H 0.71725 0.05601 0.50057 0.00000
N304 N 0.85894 0.88733 0.02971 0.00000
N305 N 0.81594 0.89742 0.06762 0.00000
C306 C 0.72624 0.90305 0.05808 0.00000
C307 C 0.71380 0.89646 0.01429 0.00000
C308 C 0.79581 0.88674 0.99676 0.00000
H309 H 0.65131 0.89919 0.00010 0.00000
H310 H 0.92459 0.88205 0.03000 0.00000
H311 H 0.83825 0.90086 0.09786 0.00000
N312 N 0.22325 0.89915 0.98845 0.00000
N313 N 0.28390 0.88702 0.01915 0.00000
C314 C 0.23711 0.88012 0.05705 0.00000
C315 C 0.14755 0.88797 0.04977 0.00000
C316 C 0.13899 0.89973 0.00737 0.00000
H317 H 0.10152 0.88458 0.07414 0.00000
H318 H 0.24441 0.90560 0.95873 0.00000
H319 H 0.35006 0.88296 0.01795 0.00000
N320 N 0.77605 0.90103 0.49688 0.00000
N321 N 0.71540 0.88891 0.46617 0.00000
C322 C 0.76278 0.88038 0.42894 0.00000
C323 C 0.85271 0.88723 0.43663 0.00000
C324 C 0.86091 0.89999 0.47861 0.00000
H325 H 0.89920 0.88258 0.41277 0.00000
H326 H 0.75451 0.90854 0.52615 0.00000
H327 H 0.64890 0.88576 0.46700 0.00000
N328 N 0.36714 0.11866 0.08557 0.00000
N329 N 0.42779 0.10654 0.05487 0.00000
C330 C 0.38165 0.10105 0.01645 0.00000
C331 C 0.29249 0.10977 0.02340 0.00000
C332 C 0.28353 0.12066 0.06612 0.00000
H333 H 0.24696 0.10748 0.99863 0.00000
H334 H 0.38787 0.12418 0.11563 0.00000
H335 H 0.49358 0.10168 0.05636 0.00000
N336 N 0.78619 0.08299 0.97964 0.00000
N337 N 0.82920 0.07291 0.01754 0.00000
C338 C 0.79360 0.09289 0.05124 0.00000
C339 C 0.72859 0.11532 0.03417 0.00000
C340 C 0.72402 0.10921 0.98992 0.00000
H341 H 0.69408 0.13242 0.05412 0.00000
H342 H 0.80278 0.07146 0.95155 0.00000
H343 H 0.87747 0.05503 0.02344 0.00000
N344 N 0.31807 0.09208 0.42200 0.00000
N345 N 0.36109 0.10215 0.45991 0.00000
C346 C 0.29612 0.11182 0.48982 0.00000
C347 C 0.21296 0.10771 0.47040 0.00000
C348 C 0.22652 0.09552 0.42849 0.00000
H349 H 0.15571 0.11356 0.48742 0.00000
H350 H 0.35393 0.08415 0.39640 0.00000
H351 H 0.42592 0.10332 0.46794 0.00000
N352 N 0.18229 0.90220 0.41987 0.00000
N353 N 0.13927 0.89213 0.45777 0.00000
C354 C 0.20393 0.88740 0.48952 0.00000
C355 C 0.28690 0.89455 0.47125 0.00000
C356 C 0.27353 0.90370 0.42820 0.00000
H357 H 0.34391 0.89252 0.48969 0.00000
H358 H 0.14663 0.90689 0.39306 0.00000
H359 H 0.07462 0.88818 0.46476 0.00000
N360 N 0.86478 0.64016 0.07201 0.00000
N361 N 0.92543 0.62804 0.04131 0.00000
C362 C 0.88133 0.60398 0.01460 0.00000
C363 C 0.79343 0.60124 0.02879 0.00000
C364 C 0.78320 0.62360 0.06427 0.00000
H365 H 0.74947 0.58457 0.01307 0.00000
H366 H 0.88418 0.65786 0.09439 0.00000
H367 H 0.99008 0.63363 0.03621 0.00000
N368 N 0.78554 0.39584 0.02351 0.00000
N369 N 0.72490 0.40796 0.99280 0.00000
C370 C 0.63922 0.40094 0.00797 0.00000
C371 C 0.64690 0.38447 0.04804 0.00000
C372 C 0.73733 0.38132 0.05765 0.00000
H373 H 0.59038 0.37707 0.06475 0.00000
H374 H 0.85134 0.39854 0.01839 0.00000
H375 H 0.73337 0.41987 0.96411 0.00000
N376 N 0.31918 0.62157 0.98596 0.00000
N377 N 0.36220 0.61149 0.02387 0.00000
C378 C 0.29811 0.59817 0.05210 0.00000
C379 C 0.21550 0.60001 0.03166 0.00000
C380 C 0.22852 0.61447 0.99078 0.00000
H381 H 0.15893 0.59132 0.04739 0.00000
H382 H 0.35447 0.63191 0.96146 0.00000
H383 H 0.42652 0.61239 0.03283 0.00000
N384 N 0.81465 0.60482 0.41794 0.00000
N385 N 0.85767 0.61489 0.45584 0.00000
C386 C 0.79565 0.61356 0.48926 0.00000
C387 C 0.71432 0.60266 0.47201 0.00000
C388 C 0.72606 0.59726 0.42794 0.00000
H389 H 0.65935 0.60000 0.49175 0.00000
H390 H 0.84858 0.60410 0.39004 0.00000
H391 H 0.92083 0.62226 0.46190 0.00000
N392 N 0.86292 0.39096 0.46338 0.00000
N393 N 0.81991 0.38089 0.50128 0.00000
C394 C 0.72862 0.38587 0.49547 0.00000
C395 C 0.71520 0.39902 0.45398 0.00000
C396 C 0.79820 0.40217 0.43414 0.00000
H397 H 0.65148 0.40450 0.44334 0.00000
H398 H 0.92962 0.38928 0.46122 0.00000
H399 H 0.84311 0.37147 0.52944 0.00000
N400 N 0.23206 0.54427 0.36522 0.00000
N401 N 0.15465 0.52375 0.36522 0.00000
C402 C 0.17964 0.48805 0.36522 0.00000
C403 C 0.27249 0.48650 0.36522 0.00000
C404 C 0.30488 0.52124 0.36522 0.00000
H405 H 0.30435 0.46217 0.36522 0.00000
H406 H 0.22785 0.57094 0.36522 0.00000
H407 H 0.08977 0.53040 0.36522 0.00000
N408 N 0.34722 0.52252 0.89392 0.00000
N409 N 0.27151 0.54402 0.89392 0.00000
C410 C 0.19687 0.52194 0.89392 0.00000
C411 C 0.22644 0.48679 0.89392 0.00000
C412 C 0.31935 0.48715 0.89392 0.00000
H413 H 0.18090 0.46622 0.89392 0.00000
H414 H 0.40814 0.53363 0.89392 0.00000
H415 H 0.26387 0.57057 0.89392 0.00000
N416 N 0.73206 0.04427 0.36522 0.00000
N417 N 0.65465 0.02376 0.36522 0.00000
C418 C 0.67964 0.98805 0.36522 0.00000
C419 C 0.77248 0.98650 0.36522 0.00000
C420 C 0.80488 0.02125 0.36522 0.00000
H421 H 0.80435 0.96218 0.36522 0.00000
H422 H 0.72785 0.07094 0.36522 0.00000
H423 H 0.58977 0.03040 0.36522 0.00000
N424 N 0.84722 0.02253 0.89392 0.00000
N425 N 0.77151 0.04402 0.89392 0.00000
C426 C 0.69687 0.02194 0.89392 0.00000
C427 C 0.72644 0.98679 0.89392 0.00000
C428 C 0.81935 0.98716 0.89392 0.00000
H429 H 0.68090 0.96622 0.89392 0.00000
H430 H 0.90814 0.03363 0.89392 0.00000
H431 H 0.76387 0.07057 0.89392 0.00000
N432 N 0.34536 0.02376 0.12087 0.00000
N433 N 0.26796 0.04427 0.12087 0.00000
C434 C 0.19513 0.02124 0.12087 0.00000
C435 C 0.22751 0.98650 0.12087 0.00000
C436 C 0.32035 0.98805 0.12087 0.00000
H437 H 0.18365 0.96535 0.12087 0.00000
H438 H 0.40536 0.03564 0.12087 0.00000
H439 H 0.25819 0.07071 0.12087 0.00000
N440 N 0.27148 0.95598 0.59216 0.00000
N441 N 0.34720 0.97747 0.59216 0.00000
C442 C 0.31937 0.01284 0.59216 0.00000
C443 C 0.22645 0.01321 0.59216 0.00000
C444 C 0.19685 0.97807 0.59216 0.00000
H445 H 0.19265 0.03711 0.59216 0.00000
H446 H 0.27781 0.92937 0.59216 0.00000
H447 H 0.41258 0.97165 0.59216 0.00000
N448 N 0.73205 0.45573 0.12087 0.00000
N449 N 0.65464 0.47624 0.12087 0.00000
C450 C 0.67964 0.51195 0.12087 0.00000
C451 C 0.77249 0.51350 0.12087 0.00000
C452 C 0.80487 0.47876 0.12087 0.00000
H453 H 0.80436 0.53783 0.12087 0.00000
H454 H 0.72784 0.42906 0.12087 0.00000
H455 H 0.58977 0.46959 0.12087 0.00000
N456 N 0.65280 0.52253 0.59216 0.00000
N457 N 0.72852 0.54402 0.59216 0.00000
C458 C 0.80315 0.52194 0.59216 0.00000
C459 C 0.77356 0.48679 0.59216 0.00000
C460 C 0.68064 0.48716 0.59216 0.00000
H461 H 0.81908 0.46622 0.59216 0.00000
H462 H 0.59188 0.53364 0.59216 0.00000
H463 H 0.73617 0.57057 0.59216 0.00000
N464 N 0.88820 0.24528 0.37579 0.00000
N465 N 0.91751 0.28047 0.37579 0.00000
C466 C 0.01043 0.28022 0.37579 0.00000
C467 C 0.03856 0.24489 0.37579 0.00000
C468 C 0.96302 0.22330 0.37579 0.00000
H469 H 0.10576 0.23901 0.37579 0.00000
H470 H 0.82259 0.23990 0.37579 0.00000
H471 H 0.88440 0.30370 0.37579 0.00000
N472 N 0.38820 0.74528 0.37579 0.00000
N473 N 0.41751 0.78047 0.37579 0.00000
C474 C 0.51043 0.78022 0.37579 0.00000
C475 C 0.53856 0.74489 0.37579 0.00000
C476 C 0.46302 0.72330 0.37579 0.00000
H477 H 0.60576 0.73901 0.37579 0.00000
H478 H 0.32259 0.73990 0.37579 0.00000
H479 H 0.38440 0.80370 0.37579 0.00000
N480 N 0.60731 0.23663 0.89645 0.00000
N481 N 0.59587 0.27343 0.89645 0.00000
C482 C 0.50463 0.28045 0.89645 0.00000
C483 C 0.45968 0.24800 0.89645 0.00000
C484 C 0.52313 0.22092 0.89645 0.00000
H485 H 0.39089 0.24749 0.89645 0.00000
H486 H 0.66900 0.22623 0.89645 0.00000
H487 H 0.63976 0.29362 0.89645 0.00000
N488 N 0.09586 0.77343 0.89645 0.00000
N489 N 0.10731 0.73664 0.89645 0.00000
C490 C 0.02314 0.72092 0.89645 0.00000
C491 C 0.95968 0.74800 0.89645 0.00000
C492 C 0.00462 0.78045 0.89645 0.00000
H493 H 0.89266 0.74179 0.89645 0.00000
H494 H 0.14931 0.78954 0.89645 0.00000
H495 H 0.16224 0.72134 0.89645 0.00000
N496 N 0.61180 0.74530 0.11030 0.00000
N497 N 0.58248 0.78048 0.11030 0.00000
C498 C 0.48955 0.78022 0.11030 0.00000
C499 C 0.46144 0.74488 0.11030 0.00000
C500 C 0.53699 0.72330 0.11030 0.00000
H501 H 0.39425 0.73899 0.11030 0.00000
H502 H 0.67741 0.73993 0.11030 0.00000
H503 H 0.61558 0.80371 0.11030 0.00000
N504 N 0.08247 0.28048 0.11030 0.00000
N505 N 0.11180 0.24530 0.11030 0.00000
C506 C 0.03700 0.22330 0.11030 0.00000
C507 C 0.96144 0.24488 0.11030 0.00000
C508 C 0.98955 0.28022 0.11030 0.00000
H509 H 0.89879 0.23354 0.11030 0.00000
H510 H 0.12695 0.30046 0.11030 0.00000
H511 H 0.17318 0.23461 0.11030 0.00000
N512 N 0.40412 0.27341 0.58964 0.00000
N513 N 0.39269 0.23662 0.58964 0.00000
C514 C 0.47687 0.22092 0.58964 0.00000
C515 C 0.54033 0.24801 0.58964 0.00000
C516 C 0.49536 0.28045 0.58964 0.00000
H517 H 0.60734 0.24181 0.58964 0.00000
H518 H 0.35067 0.28952 0.58964 0.00000
H519 H 0.33778 0.22132 0.58964 0.00000
N520 N 0.90412 0.77341 0.58964 0.00000
N521 N 0.89269 0.73662 0.58964 0.00000
C522 C 0.97687 0.72092 0.58964 0.00000
C523 C 0.04033 0.74801 0.58964 0.00000
C524 C 0.99536 0.78045 0.58964 0.00000
H525 H 0.10734 0.74181 0.58964 0.00000
H526 H 0.85067 0.78952 0.58964 0.00000
H527 H 0.83778 0.72132 0.58964 0.00000
N528 N 0.89651 0.39996 0.22182 0.00000
N529 N 0.89881 0.39996 0.26673 0.00000
C530 C 0.98788 0.39996 0.27955 0.00000
C531 C 0.04062 0.39996 0.24256 0.00000
C532 C 0.98415 0.39996 0.20689 0.00000
H533 H 0.10919 0.39996 0.24522 0.00000
H534 H 0.83769 0.39996 0.20633 0.00000
H535 H 0.85015 0.39995 0.28898 0.00000
N536 N 0.39652 0.60004 0.26428 0.00000
N537 N 0.39882 0.60004 0.21937 0.00000
C538 C 0.48788 0.60004 0.20655 0.00000
C539 C 0.54063 0.60004 0.24354 0.00000
C540 C 0.48416 0.60004 0.27921 0.00000
H541 H 0.60920 0.60004 0.24088 0.00000
H542 H 0.33769 0.60004 0.27976 0.00000
H543 H 0.35016 0.60003 0.19711 0.00000
N544 N 0.56902 0.38799 0.78594 0.00000
N545 N 0.61223 0.38799 0.74616 0.00000
C546 C 0.54734 0.38799 0.71401 0.00000
C547 C 0.46402 0.38798 0.73391 0.00000
C548 C 0.47743 0.38798 0.77836 0.00000
H549 H 0.40679 0.38798 0.71545 0.00000
H550 H 0.60481 0.38799 0.81331 0.00000
H551 H 0.67714 0.38799 0.73818 0.00000
N552 N 0.89883 0.10004 0.21936 0.00000
N553 N 0.89651 0.10004 0.26427 0.00000
C554 C 0.98415 0.10004 0.27921 0.00000
C555 C 0.04063 0.10004 0.24354 0.00000
C556 C 0.98789 0.10004 0.20655 0.00000
H557 H 0.10884 0.10004 0.24784 0.00000
H558 H 0.84167 0.10003 0.20248 0.00000
H559 H 0.84563 0.10004 0.28533 0.00000
N560 N 0.11223 0.88799 0.74616 0.00000
N561 N 0.06903 0.88798 0.78594 0.00000
C562 C 0.97743 0.88798 0.77836 0.00000
C563 C 0.96402 0.88798 0.73391 0.00000
C564 C 0.04733 0.88798 0.71401 0.00000
H565 H 0.90010 0.88798 0.72162 0.00000
H566 H 0.17916 0.88799 0.74486 0.00000
H567 H 0.09227 0.88799 0.81630 0.00000
N568 N 0.60348 0.89996 0.26428 0.00000
N569 N 0.60118 0.89996 0.21937 0.00000
C570 C 0.51212 0.89996 0.20655 0.00000
C571 C 0.45937 0.89996 0.24354 0.00000
C572 C 0.51584 0.89996 0.27921 0.00000
H573 H 0.39080 0.89996 0.24088 0.00000
H574 H 0.66231 0.89996 0.27976 0.00000
H575 H 0.64984 0.89996 0.19711 0.00000
N576 N 0.56903 0.11202 0.70015 0.00000
N577 N 0.61224 0.11202 0.73992 0.00000
C578 C 0.54734 0.11202 0.77207 0.00000
C579 C 0.46403 0.11202 0.75218 0.00000
C580 C 0.47743 0.11201 0.70773 0.00000
H581 H 0.40680 0.11201 0.77063 0.00000
H582 H 0.60482 0.11202 0.67278 0.00000
H583 H 0.67715 0.11202 0.74791 0.00000
N584 N 0.88777 0.61201 0.74616 0.00000
N585 N 0.93097 0.61202 0.78594 0.00000
C586 C 0.02257 0.61202 0.77836 0.00000
C587 C 0.03598 0.61202 0.73391 0.00000
C588 C 0.95267 0.61202 0.71401 0.00000
H589 H 0.09990 0.61202 0.72162 0.00000
H590 H 0.82084 0.61201 0.74486 0.00000
H591 H 0.90773 0.61201 0.81630 0.00000
loop_
_geom_bond_atom_site_label_1
_geom_bond_atom_site_label_2
_geom_bond_distance
_geom_bond_site_symmetry_2
_ccdc_geom_bond_type
C0 O1 1.253 . S
C0 O2 1.267 1_455 D
O1 Sm3 2.353 . S
Sm3 O4 2.343 . S
Sm3 O5 2.473 1_455 S
Sm3 O6 2.509 1_455 S
Sm3 O8 2.544 1_455 S
Sm3 O9 2.420 . S
Sm3 O10 2.324 . S
Sm3 O16 2.406 . S
O4 C7 1.265 . S
O5 C14 1.254 . A
O6 C14 1.281 . A
C7 O11 1.253 . D
O8 C12 1.269 . A
O9 C12 1.247 1_455 A
O10 C15 1.251 . S
O13 C15 1.265 . D
C17 O18 1.253 . S
C17 O19 1.267 . D
O18 Sm20 2.353 . S
Sm20 O21 2.343 . S
Sm20 O22 2.473 . S
Sm20 O23 2.509 . S
Sm20 O25 2.544 . S
Sm20 O26 2.420 . S
Sm20 O27 2.324 . S
Sm20 O33 2.406 . S
O21 C24 1.265 . S
O22 C31 1.254 . A
O23 C31 1.281 . A
C24 O28 1.253 . D
O25 C29 1.264 . A
O26 C29 1.253 . A
O27 C32 1.251 . S
O30 C32 1.265 . D
C34 O35 1.253 . S
C34 O36 1.267 . D
O35 Sm37 2.353 . S
Sm37 O38 2.343 . S
Sm37 O39 2.473 . S
Sm37 O40 2.509 . S
Sm37 O42 2.544 . S
Sm37 O43 2.420 . S
Sm37 O44 2.324 . S
Sm37 O50 2.406 . S
O38 C41 1.265 . S
O39 C48 1.254 . A
O40 C48 1.281 . A
C41 O45 1.253 . D
O42 C46 1.264 . A
O43 C46 1.253 . A
O44 C49 1.251 . S
O47 C49 1.265 . D
C51 O52 1.253 . S
C51 O53 1.267 1_655 D
O52 Sm54 2.353 . S
Sm54 O55 2.343 . S
Sm54 O56 2.473 1_655 S
Sm54 O57 2.509 1_655 S
Sm54 O59 2.544 1_655 S
Sm54 O60 2.420 . S
Sm54 O61 2.324 . S
Sm54 O67 2.406 . S
O55 C58 1.265 . S
O56 C65 1.254 . A
O57 C65 1.281 . A
C58 O62 1.253 . D
O59 C63 1.269 . A
O60 C63 1.247 1_655 A
O61 C66 1.251 . S
O64 C66 1.265 . D
C68 O69 1.253 . S
C68 O70 1.267 . D
O69 Sm71 2.353 1_455 S
Sm71 O72 2.343 . S
Sm71 O73 2.473 1_655 S
Sm71 O74 2.509 1_655 S
Sm71 O76 2.544 . S
Sm71 O77 2.420 . S
Sm71 O78 2.324 . S
Sm71 O84 2.406 1_655 S
O72 C75 1.265 . S
O73 C82 1.254 . A
O74 C82 1.281 . A
C75 O79 1.253 1_655 D
O76 C80 1.264 . A
O77 C80 1.253 . A
O78 C83 1.251 . S
O81 C83 1.265 . D
C85 O86 1.253 . S
C85 O87 1.267 . D
O86 Sm88 2.353 . S
Sm88 O89 2.343 . S
Sm88 O90 2.473 . S
Sm88 O91 2.509 . S
Sm88 O93 2.544 . S
Sm88 O94 2.420 . S
Sm88 O95 2.324 . S
Sm88 O101 2.406 . S
O89 C92 1.265 . S
O90 C99 1.254 . A
O91 C99 1.281 . A
C92 O96 1.253 . D
O93 C97 1.264 . A
O94 C97 1.253 . A
O95 C100 1.251 . S
O98 C100 1.265 . D
C102 O103 1.253 . S
C102 O104 1.267 . D
O103 Sm105 2.353 . S
Sm105 O106 2.343 . S
Sm105 O107 2.473 . S
Sm105 O108 2.509 . S
Sm105 O110 2.544 . S
Sm105 O111 2.420 . S
Sm105 O112 2.324 . S
Sm105 O118 2.406 . S
O106 C109 1.265 . S
O107 C116 1.254 . A
O108 C116 1.281 . A
C109 O113 1.253 . D
O110 C114 1.264 . A
O111 C114 1.253 . A
O112 C117 1.251 . S
O115 C117 1.265 . D
C119 O120 1.253 . S
C119 O121 1.267 1_455 D
O120 Sm122 2.353 . S
Sm122 O123 2.343 . S
Sm122 O124 2.473 1_455 S
Sm122 O125 2.509 1_455 S
Sm122 O127 2.544 1_455 S
Sm122 O128 2.420 . S
Sm122 O129 2.324 . S
Sm122 O135 2.406 . S
O123 C126 1.265 . S
O124 C133 1.254 . A
O125 C133 1.281 . A
C126 O130 1.253 . D
O127 C131 1.269 . A
O128 C131 1.247 1_455 A
O129 C134 1.251 . S
O132 C134 1.265 . D
C136 O137 1.253 . S
C136 O138 1.267 . D
O137 Sm139 2.353 . S
Sm139 O140 2.343 . S
Sm139 O141 2.473 . S
Sm139 O142 2.509 . S
Sm139 O144 2.544 . S
Sm139 O145 2.420 . S
Sm139 O146 2.324 . S
Sm139 O152 2.406 . S
O140 C143 1.265 . S
O141 C150 1.254 . A
O142 C150 1.281 . A
C143 O147 1.253 . D
O144 C148 1.264 . A
O145 C148 1.253 . A
O146 C151 1.251 . S
O149 C151 1.265 . D
C153 O154 1.253 . S
C153 O155 1.267 . D
O154 Sm156 2.353 . S
Sm156 O157 2.343 . S
Sm156 O158 2.473 . S
Sm156 O159 2.509 . S
Sm156 O161 2.544 . S
Sm156 O162 2.420 . S
Sm156 O163 2.324 . S
Sm156 O169 2.406 . S
O157 C160 1.265 . S
O158 C167 1.254 . A
O159 C167 1.281 . A
C160 O164 1.253 . D
O161 C165 1.264 . A
O162 C165 1.253 . A
O163 C168 1.251 . S
O166 C168 1.265 . D
C170 O171 1.253 . S
C170 O172 1.267 . D
O171 Sm173 2.353 1_655 S
Sm173 O174 2.343 . S
Sm173 O175 2.473 1_455 S
Sm173 O176 2.509 1_455 S
Sm173 O178 2.544 . S
Sm173 O179 2.420 . S
Sm173 O180 2.324 . S
Sm173 O186 2.406 1_455 S
O174 C177 1.265 . S
O175 C184 1.254 . A
O176 C184 1.281 . A
C177 O181 1.253 1_455 D
O178 C182 1.264 . A
O179 C182 1.253 . A
O180 C185 1.251 . S
O183 C185 1.265 . D
C187 O188 1.253 . S
C187 O189 1.267 . D
O188 Sm190 2.353 . S
Sm190 O191 2.343 . S
Sm190 O192 2.473 . S
Sm190 O193 2.509 . S
Sm190 O195 2.544 . S
Sm190 O196 2.420 . S
Sm190 O197 2.324 . S
Sm190 O203 2.406 . S
O191 C194 1.265 . S
O192 C201 1.254 . A
O193 C201 1.281 . A
C194 O198 1.253 . D
O195 C199 1.264 . A
O196 C199 1.253 . A
O197 C202 1.251 . S
O200 C202 1.265 . D
C204 O205 1.253 . S
C204 O206 1.267 1_655 D
O205 Sm207 2.353 . S
Sm207 O208 2.343 . S
Sm207 O209 2.473 1_655 S
Sm207 O210 2.509 1_655 S
Sm207 O212 2.544 1_655 S
Sm207 O213 2.420 . S
Sm207 O214 2.324 . S
Sm207 O220 2.406 . S
O208 C211 1.265 . S
O209 C218 1.254 . A
O210 C218 1.281 . A
C211 O215 1.253 . D
O212 C216 1.269 . A
O213 C216 1.247 1_655 A
O214 C219 1.251 . S
O217 C219 1.265 . D
C221 O222 1.253 . S
C221 O223 1.267 . D
O222 Sm224 2.353 1_655 S
Sm224 O225 2.343 . S
Sm224 O226 2.473 1_455 S
Sm224 O227 2.509 1_455 S
Sm224 O229 2.544 . S
Sm224 O230 2.420 . S
Sm224 O231 2.324 . S
Sm224 O237 2.406 1_455 S
O225 C228 1.265 . S
O226 C235 1.254 . A
O227 C235 1.281 . A
C228 O232 1.253 1_455 D
O229 C233 1.264 . A
O230 C233 1.253 . A
O231 C236 1.251 . S
O234 C236 1.265 . D
C238 O239 1.253 . S
C238 O240 1.267 . D
O239 Sm241 2.353 1_455 S
Sm241 O242 2.343 . S
Sm241 O243 2.473 1_655 S
Sm241 O244 2.509 1_655 S
Sm241 O246 2.544 . S
Sm241 O247 2.420 . S
Sm241 O248 2.324 . S
Sm241 O254 2.406 1_655 S
O242 C245 1.265 . S
O243 C252 1.254 . A
O244 C252 1.281 . A
C245 O249 1.253 1_655 D
O246 C250 1.264 . A
O247 C250 1.253 . A
O248 C253 1.251 . S
O251 C253 1.265 . D
C255 O256 1.253 . S
C255 O257 1.267 . D
O256 Sm258 2.353 . S
Sm258 O259 2.343 . S
Sm258 O260 2.473 . S
Sm258 O261 2.509 . S
Sm258 O263 2.544 . S
Sm258 O264 2.420 . S
Sm258 O265 2.324 . S
Sm258 O271 2.406 . S
O259 C262 1.265 . S
O260 C269 1.254 . A
O261 C269 1.281 . A
C262 O266 1.253 . D
O263 C267 1.264 . A
O264 C267 1.253 . A
O265 C270 1.251 . S
O268 C270 1.265 . D
N272 N273 1.540 . A
N272 C276 1.540 . A
N272 H278 1.110 . S
N273 C274 1.540 . A
N273 H279 1.110 . S
C274 C275 1.540 . A
C275 C276 1.540 . A
C275 H277 1.140 . S
N280 N281 1.540 . A
N280 C284 1.540 . A
N280 H286 1.110 . S
N281 C282 1.540 . A
N281 H287 1.110 . S
C282 C283 1.540 . A
C283 C284 1.540 . A
C283 H285 1.140 . S
N288 N289 1.540 1_554 A
N288 C292 1.540 . A
N288 H294 1.110 . S
N289 C290 1.540 . A
N289 H295 1.110 . S
C290 C291 1.540 1_556 A
C291 C292 1.540 . A
C291 H293 1.140 . S
N296 N297 1.540 . A
N296 C300 1.540 . A
N296 H302 1.110 . S
N297 C298 1.540 . A
N297 H303 1.110 . S
C298 C299 1.540 . A
C299 C300 1.540 . A
C299 H301 1.140 . S
N304 N305 1.540 . A
N304 C308 1.540 1_554 A
N304 H310 1.110 . S
N305 C306 1.540 . A
N305 H311 1.110 . S
C306 C307 1.540 . A
C307 C308 1.540 1_554 A
C307 H309 1.150 . S
N312 N313 1.540 1_556 A
N312 C316 1.540 1_556 A
N312 H318 1.110 . S
N313 C314 1.540 . A
N313 H319 1.110 . S
C314 C315 1.540 . A
C315 C316 1.540 . A
C315 H317 1.140 . S
N320 N321 1.540 . A
N320 C324 1.540 . A
N320 H326 1.110 . S
N321 C322 1.540 . A
N321 H327 1.110 . S
C322 C323 1.540 . A
C323 C324 1.540 . A
C323 H325 1.140 . S
N328 N329 1.540 . A
N328 C332 1.540 . A
N328 H334 1.110 . S
N329 C330 1.540 . A
N329 H335 1.110 . S
C330 C331 1.540 . A
C331 C332 1.540 . A
C331 H333 1.140 1_554 S
N336 N337 1.540 1_556 A
N336 C340 1.540 . A
N336 H342 1.110 . S
N337 C338 1.540 . A
N337 H343 1.110 . S
C338 C339 1.540 . A
C339 C340 1.540 1_554 A
C339 H341 1.140 . S
N344 N345 1.540 . A
N344 C348 1.540 . A
N344 H350 1.110 . S
N345 C346 1.540 . A
N345 H351 1.110 . S
C346 C347 1.540 . A
C347 C348 1.540 . A
C347 H349 1.140 . S
N352 N353 1.540 . A
N352 C356 1.540 . A
N352 H358 1.110 . S
N353 C354 1.540 . A
N353 H359 1.110 . S
C354 C355 1.540 . A
C355 C356 1.540 . A
C355 H357 1.140 . S
N360 N361 1.540 . A
N360 C364 1.540 . A
N360 H366 1.110 . S
N361 C362 1.540 . A
N361 H367 1.110 . S
C362 C363 1.540 . A
C363 C364 1.540 . A
C363 H365 1.140 . S
N368 N369 1.540 1_554 A
N368 C372 1.540 . A
N368 H374 1.110 . S
N369 C370 1.540 1_556 A
N369 H375 1.110 . S
C370 C371 1.540 . A
C371 C372 1.540 . A
C371 H373 1.140 . S
N376 N377 1.540 1_556 A
N376 C380 1.540 . A
N376 H382 1.110 . S
N377 C378 1.540 . A
N377 H383 1.110 . S
C378 C379 1.540 . A
C379 C380 1.540 1_554 A
C379 H381 1.140 . S
N384 N385 1.540 . A
N384 C388 1.540 . A
N384 H390 1.110 . S
N385 C386 1.540 . A
N385 H391 1.110 . S
C386 C387 1.540 . A
C387 C388 1.540 . A
C387 H389 1.140 . S
N392 N393 1.540 . A
N392 C396 1.540 . A
N392 H398 1.110 . S
N393 C394 1.540 . A
N393 H399 1.110 . S
C394 C395 1.540 . A
C395 C396 1.540 . A
C395 H397 1.140 . S
N400 N401 1.540 . A
N400 C404 1.540 . A
N400 H406 1.110 . S
N401 C402 1.540 . A
N401 H407 1.110 . S
C402 C403 1.540 . A
C403 C404 1.540 . A
C403 H405 1.140 . S
N408 N409 1.540 . A
N408 C412 1.540 . A
N408 H414 1.110 . S
N409 C410 1.540 . A
N409 H415 1.110 . S
C410 C411 1.540 . A
C411 C412 1.540 . A
C411 H413 1.140 . S
N416 N417 1.540 . A
N416 C420 1.540 . A
N416 H422 1.110 . S
N417 C418 1.540 1_545 A
N417 H423 1.110 . S
C418 C419 1.540 . A
C419 C420 1.540 1_565 A
C419 H421 1.140 . S
N424 N425 1.540 . A
N424 C428 1.540 1_545 A
N424 H430 1.110 . S
N425 C426 1.540 . A
N425 H431 1.110 . S
C426 C427 1.540 1_545 A
C427 C428 1.540 . A
C427 H429 1.140 . S
N432 N433 1.540 . A
N432 C436 1.540 1_545 A
N432 H438 1.110 . S
N433 C434 1.540 . A
N433 H439 1.110 . S
C434 C435 1.540 1_545 A
C435 C436 1.540 . A
C435 H437 1.140 . S
N440 N441 1.540 . A
N440 C444 1.540 . A
N440 H446 1.110 . S
N441 C442 1.540 1_565 A
N441 H447 1.110 . S
C442 C443 1.540 . A
C443 C444 1.540 1_545 A
C443 H445 1.140 . S
N448 N449 1.540 . A
N448 C452 1.540 . A
N448 H454 1.110 . S
N449 C450 1.540 . A
N449 H455 1.110 . S
C450 C451 1.540 . A
C451 C452 1.540 . A
C451 H453 1.140 . S
N456 N457 1.540 . A
N456 C460 1.540 . A
N456 H462 1.110 . S
N457 C458 1.540 . A
N457 H463 1.110 . S
C458 C459 1.540 . A
C459 C460 1.540 . A
C459 H461 1.140 . S
N464 N465 1.540 . A
N464 C468 1.540 . A
N464 H470 1.110 . S
N465 C466 1.540 1_655 A
N465 H471 1.110 . S
C466 C467 1.540 . A
C467 C468 1.540 1_455 A
C467 H469 1.140 . S
N472 N473 1.540 . A
N472 C476 1.540 . A
N472 H478 1.110 . S
N473 C474 1.540 . A
N473 H479 1.110 . S
C474 C475 1.540 . A
C475 C476 1.540 . A
C475 H477 1.140 . S
N480 N481 1.540 . A
N480 C484 1.540 . A
N480 H486 1.110 . S
N481 C482 1.540 . A
N481 H487 1.110 . S
C482 C483 1.540 . A
C483 C484 1.540 . A
C483 H485 1.140 . S
N488 N489 1.540 . A
N488 C492 1.540 . A
N488 H494 1.110 . S
N489 C490 1.540 . A
N489 H495 1.110 . S
C490 C491 1.540 1_455 A
C491 C492 1.540 1_655 A
C491 H493 1.140 . S
N496 N497 1.540 . A
N496 C500 1.540 . A
N496 H502 1.110 . S
N497 C498 1.540 . A
N497 H503 1.110 . S
C498 C499 1.540 . A
C499 C500 1.540 . A
C499 H501 1.140 . S
N504 N505 1.540 . A
N504 C508 1.540 1_455 A
N504 H510 1.110 . S
N505 C506 1.540 . A
N505 H511 1.110 . S
C506 C507 1.540 1_455 A
C507 C508 1.540 . A
C507 H509 1.140 . S
N512 N513 1.540 . A
N512 C516 1.540 . A
N512 H518 1.110 . S
N513 C514 1.540 . A
N513 H519 1.110 . S
C514 C515 1.540 . A
C515 C516 1.540 . A
C515 H517 1.140 . S
N520 N521 1.540 . A
N520 C524 1.540 . A
N520 H526 1.110 . S
N521 C522 1.540 . A
N521 H527 1.110 . S
C522 C523 1.540 1_655 A
C523 C524 1.540 1_455 A
C523 H525 1.140 . S
N528 N529 1.540 . A
N528 C532 1.540 . A
N528 H534 1.110 . S
N529 C530 1.540 . A
N529 H535 1.110 . S
C530 C531 1.540 1_655 A
C531 C532 1.540 1_455 A
C531 H533 1.140 . S
N536 N537 1.540 . A
N536 C540 1.540 . A
N536 H542 1.110 . S
N537 C538 1.540 . A
N537 H543 1.110 . S
C538 C539 1.540 . A
C539 C540 1.540 . A
C539 H541 1.140 . S
N544 N545 1.540 . A
N544 C548 1.540 . A
N544 H550 1.110 . S
N545 C546 1.540 . A
N545 H551 1.110 . S
C546 C547 1.540 . A
C547 C548 1.540 . A
C547 H549 1.140 . S
N552 N553 1.540 . A
N552 C556 1.540 . A
N552 H558 1.110 . S
N553 C554 1.540 . A
N553 H559 1.110 . S
C554 C555 1.540 1_655 A
C555 C556 1.540 1_455 A
C555 H557 1.140 . S
N560 N561 1.540 . A
N560 C564 1.540 . A
N560 H566 1.110 . S
N561 C562 1.540 1_455 A
N561 H567 1.110 . S
C562 C563 1.540 . A
C563 C564 1.540 1_655 A
C563 H565 1.140 . S
N568 N569 1.540 . A
N568 C572 1.540 . A
N568 H574 1.110 . S
N569 C570 1.540 . A
N569 H575 1.110 . S
C570 C571 1.540 . A
C571 C572 1.540 . A
C571 H573 1.140 . S
N576 N577 1.540 . A
N576 C580 1.540 . A
N576 H582 1.110 . S
N577 C578 1.540 . A
N577 H583 1.110 . S
C578 C579 1.540 . A
C579 C580 1.540 . A
C579 H581 1.140 . S
N584 N585 1.540 . A
N584 C588 1.540 . A
N584 H590 1.110 . S
N585 C586 1.540 1_655 A
N585 H591 1.110 . S
C586 C587 1.540 . A
C587 C588 1.540 1_455 A
C587 H589 1.140 . S
C274 C7 0.864 . S
C276 C269 1.177 . S
C282 C24 0.797 . S
C284 C252 1.129 . S
C290 C46 1.643 . S
C292 C218 1.221 . S
C298 C167 1.131 . S
C300 C58 0.798 . S
C306 C99 1.450 . S
C308 C80 1.501 . S
C314 C92 0.796 . S
C316 C82 1.066 1_554 S
C322 C109 0.793 . S
C324 C184 1.070 . S
C330 C150 1.184 1_554 S
C332 C126 1.115 . S
C338 C133 1.293 . S
C340 C148 1.596 . S
C346 C165 1.492 . S
C348 C65 1.460 . S
C354 C182 1.496 . S
C356 C116 1.455 . S
C362 C235 1.136 1_554 S
C364 C194 1.123 . S
C370 C48 1.085 1_554 S
C372 C211 0.785 . S
C378 C201 1.219 . S
C380 C233 1.644 . S
C386 C250 1.503 . S
C388 C31 1.447 . S
C394 C267 1.643 . S
C396 C14 1.220 . S
C402 C15 1.489 . S
C404 C32 1.588 . S
C410 C236 1.751 . S
C412 C49 1.628 . S
C418 C117 1.489 . S
C420 C66 1.588 . S
C426 C151 1.751 . S
C428 C83 1.628 . S
C434 C134 1.589 . S
C436 C100 1.489 . S
C442 C168 1.627 . S
C444 C185 1.751 . S
C450 C202 1.489 . S
C452 C219 1.589 . S
C458 C253 1.751 . S
C460 C270 1.627 . S
C466 C0 1.227 . S
C468 C51 1.399 . S
C474 C102 1.227 . S
C476 C17 1.399 . S
C482 C34 1.162 . S
C484 C136 1.381 . S
C490 C221 1.381 1_455 S
C492 C68 1.162 . S
C498 C85 1.228 . S
C500 C187 1.399 . S
C506 C119 1.399 . S
C508 C204 1.228 . S
C514 C153 1.382 . S
C516 C255 1.162 . S
C522 C238 1.381 1_655 S
C524 C170 1.162 . S
C530 C12 1.086 . S
C532 C216 1.111 1_655 S
C538 C199 1.084 . S
C540 C29 1.112 . S
C546 C262 1.590 . S
C548 C41 1.384 . S
C554 C63 1.111 1_655 S
C556 C131 1.086 . S
C562 C75 1.384 . S
C564 C177 1.590 . S
C570 C97 1.084 . S
C572 C114 1.112 . S
C578 C143 1.590 . S
C580 C160 1.384 . S
C586 C228 1.384 . S
C588 C245 1.590 . S
