# Generated by pormake.
# Topology vbn, (6)-cn, num edge types: 1
# Building blocks:
#     Node 0, Type 0, BuildingBlock: N554, # of connection points: 6
#     Node 1, Type 0, BuildingBlock: N554, # of connection points: 6
#     Node 2, Type 0, BuildingBlock: N554, # of connection points: 6
#     Node 3, Type 0, BuildingBlock: N554, # of connection points: 6
#     Node 4, Type 0, BuildingBlock: N554, # of connection points: 6
#     Node 5, Type 0, BuildingBlock: N554, # of connection points: 6
#     Node 6, Type 0, BuildingBlock: N554, # of connection points: 6
#     Node 7, Type 0, BuildingBlock: N554, # of connection points: 6
#     Edge 8, Type (0, 0), BuildingBlock: E183, # of connection points: 2
#     Edge 9, Type (0, 0), BuildingBlock: E183, # of connection points: 2
#     Edge 10, Type (0, 0), BuildingBlock: E183, # of connection points: 2
#     Edge 11, Type (0, 0), BuildingBlock: E183, # of connection points: 2
#     Edge 12, Type (0, 0), BuildingBlock: E183, # of connection points: 2
#     Edge 13, Type (0, 0), BuildingBlock: E183, # of connection points: 2
#     Edge 14, Type (0, 0), BuildingBlock: E183, # of connection points: 2
#     Edge 15, Type (0, 0), BuildingBlock: E183, # of connection points: 2
#     Edge 16, Type (0, 0), BuildingBlock: E183, # of connection points: 2
#     Edge 17, Type (0, 0), BuildingBlock: E183, # of connection points: 2
#     Edge 18, Type (0, 0), BuildingBlock: E183, # of connection points: 2
#     Edge 19, Type (0, 0), BuildingBlock: E183, # of connection points: 2
#     Edge 20, Type (0, 0), BuildingBlock: E183, # of connection points: 2
#     Edge 21, Type (0, 0), BuildingBlock: E183, # of connection points: 2
#     Edge 22, Type (0, 0), BuildingBlock: E183, # of connection points: 2
#     Edge 23, Type (0, 0), BuildingBlock: E183, # of connection points: 2
#     Edge 24, Type (0, 0), BuildingBlock: E183, # of connection points: 2
#     Edge 25, Type (0, 0), BuildingBlock: E183, # of connection points: 2
#     Edge 26, Type (0, 0), BuildingBlock: E183, # of connection points: 2
#     Edge 27, Type (0, 0), BuildingBlock: E183, # of connection points: 2
#     Edge 28, Type (0, 0), BuildingBlock: E183, # of connection points: 2
#     Edge 29, Type (0, 0), BuildingBlock: E183, # of connection points: 2
#     Edge 30, Type (0, 0), BuildingBlock: E183, # of connection points: 2
#     Edge 31, Type (0, 0), BuildingBlock: E183, # of connection points: 2
# Relax obj value: 0.208
# Max RMSD: 0.235
# Mean RMSD: 0.235
data_vbn+N554+E183
_symmetry_space_group_name_H-M    P1
_symmetry_Int_Tables_number       1
_symmetry_cell_setting            triclinic
loop_
_symmetry_equiv_pos_as_xyz
'x, y, z'
_cell_length_a     24.706
_cell_length_b     26.032
_cell_length_c     38.341
_cell_angle_alpha  90.000
_cell_angle_beta   90.000
_cell_angle_gamma  90.000
loop_
_atom_site_label
_atom_site_type_symbol
_atom_site_fract_x
_atom_site_fract_y
_atom_site_fract_z
_atom_type_partial_charge
O0 O 0.50503 0.30995 0.08291 0.00000
O1 O 0.53300 0.22992 0.08580 0.00000
Zn2 Zn 0.59669 0.24746 0.11327 0.00000
Zn3 Zn 0.67892 0.34768 0.06511 0.00000
C4 C 0.66132 0.43146 0.11338 0.00000
Zn5 Zn 0.56073 0.36479 0.09904 0.00000
C6 C 0.59472 0.37992 0.02139 0.00000
O7 O 0.69563 0.40914 0.09298 0.00000
O8 O 0.61278 0.42261 0.11462 0.00000
O9 O 0.56670 0.38511 0.04679 0.00000
O10 O 0.64323 0.36427 0.02123 0.00000
C11 C 0.77609 0.31082 0.03958 0.00000
C12 C 0.64593 0.15217 0.11583 0.00000
C13 C 0.56316 0.31183 0.17087 0.00000
C14 C 0.50035 0.26489 0.07667 0.00000
O15 O 0.65398 0.19812 0.11785 0.00000
O16 O 0.59700 0.13476 0.11737 0.00000
O17 O 0.62756 0.31216 0.09593 0.00000
O18 O 0.74538 0.30952 0.06432 0.00000
O19 O 0.77013 0.34578 0.01596 0.00000
O20 O 0.57856 0.26645 0.16156 0.00000
O21 O 0.55046 0.34665 0.15113 0.00000
O22 O 0.50503 0.69005 0.58290 0.00000
O23 O 0.53300 0.77008 0.58580 0.00000
Zn24 Zn 0.59669 0.75254 0.61327 0.00000
Zn25 Zn 0.67892 0.65232 0.56510 0.00000
C26 C 0.66132 0.56854 0.61337 0.00000
Zn27 Zn 0.56073 0.63521 0.59903 0.00000
C28 C 0.59472 0.62008 0.52138 0.00000
O29 O 0.69563 0.59086 0.59298 0.00000
O30 O 0.61278 0.57739 0.61462 0.00000
O31 O 0.56670 0.61489 0.54678 0.00000
O32 O 0.64323 0.63573 0.52123 0.00000
C33 C 0.77609 0.68918 0.53958 0.00000
C34 C 0.64593 0.84783 0.61582 0.00000
C35 C 0.56316 0.68817 0.67087 0.00000
C36 C 0.50035 0.73511 0.57666 0.00000
O37 O 0.65398 0.80189 0.61785 0.00000
O38 O 0.59700 0.86524 0.61737 0.00000
O39 O 0.62756 0.68784 0.59592 0.00000
O40 O 0.74538 0.69048 0.56431 0.00000
O41 O 0.77014 0.65422 0.51596 0.00000
O42 O 0.57856 0.73355 0.66155 0.00000
O43 O 0.55046 0.65335 0.65112 0.00000
O44 O 0.00503 0.19005 0.91709 0.00000
O45 O 0.03300 0.27008 0.91420 0.00000
Zn46 Zn 0.09669 0.25254 0.88672 0.00000
Zn47 Zn 0.17892 0.15232 0.93489 0.00000
C48 C 0.16132 0.06854 0.88662 0.00000
Zn49 Zn 0.06073 0.13521 0.90096 0.00000
C50 C 0.09472 0.12008 0.97861 0.00000
O51 O 0.19563 0.09086 0.90702 0.00000
O52 O 0.11278 0.07739 0.88538 0.00000
O53 O 0.06670 0.11489 0.95321 0.00000
O54 O 0.14323 0.13573 0.97877 0.00000
C55 C 0.27609 0.18918 0.96042 0.00000
C56 C 0.14593 0.34783 0.88417 0.00000
C57 C 0.06316 0.18817 0.82913 0.00000
C58 C 0.00010 0.23511 0.92333 0.00000
O59 O 0.15398 0.30189 0.88214 0.00000
O60 O 0.09700 0.36524 0.88262 0.00000
O61 O 0.12756 0.18784 0.90407 0.00000
O62 O 0.24538 0.19048 0.93568 0.00000
O63 O 0.27013 0.15422 0.98404 0.00000
O64 O 0.07856 0.23355 0.83844 0.00000
O65 O 0.05046 0.15335 0.84887 0.00000
O66 O 0.99497 0.19005 0.58291 0.00000
O67 O 0.96700 0.27008 0.58580 0.00000
Zn68 Zn 0.90331 0.25254 0.61327 0.00000
Zn69 Zn 0.82108 0.15232 0.56510 0.00000
C70 C 0.83868 0.06854 0.61337 0.00000
Zn71 Zn 0.93927 0.13521 0.59903 0.00000
C72 C 0.90528 0.12008 0.52139 0.00000
O73 O 0.80437 0.09086 0.59298 0.00000
O74 O 0.88722 0.07739 0.61462 0.00000
O75 O 0.93330 0.11489 0.54679 0.00000
O76 O 0.85677 0.13573 0.52123 0.00000
C77 C 0.72391 0.18918 0.53958 0.00000
C78 C 0.85407 0.34783 0.61583 0.00000
C79 C 0.93684 0.18817 0.67087 0.00000
C80 C 0.99990 0.23511 0.57667 0.00000
O81 O 0.84602 0.30189 0.61785 0.00000
O82 O 0.90300 0.36524 0.61737 0.00000
O83 O 0.87244 0.18784 0.59593 0.00000
O84 O 0.75462 0.19048 0.56431 0.00000
O85 O 0.72987 0.15422 0.51596 0.00000
O86 O 0.92144 0.23355 0.66156 0.00000
O87 O 0.94954 0.15335 0.65113 0.00000
O88 O 0.49497 0.30995 0.41709 0.00000
O89 O 0.46700 0.22992 0.41420 0.00000
Zn90 Zn 0.40331 0.24746 0.38673 0.00000
Zn91 Zn 0.32108 0.34768 0.43490 0.00000
C92 C 0.33868 0.43146 0.38663 0.00000
Zn93 Zn 0.43927 0.36479 0.40097 0.00000
C94 C 0.40528 0.37992 0.47862 0.00000
O95 O 0.30437 0.40914 0.40702 0.00000
O96 O 0.38722 0.42261 0.38538 0.00000
O97 O 0.43330 0.38511 0.45321 0.00000
O98 O 0.35677 0.36427 0.47877 0.00000
C99 C 0.22391 0.31082 0.46042 0.00000
C100 C 0.35407 0.15217 0.38417 0.00000
C101 C 0.43684 0.31183 0.32913 0.00000
C102 C 0.49965 0.26489 0.42334 0.00000
O103 O 0.34602 0.19812 0.38215 0.00000
O104 O 0.40300 0.13476 0.38263 0.00000
O105 O 0.37244 0.31216 0.40408 0.00000
O106 O 0.25462 0.30952 0.43569 0.00000
O107 O 0.22987 0.34578 0.48404 0.00000
O108 O 0.42144 0.26645 0.33845 0.00000
O109 O 0.44954 0.34665 0.34887 0.00000
O110 O 0.99497 0.80995 0.08290 0.00000
O111 O 0.96700 0.72992 0.08579 0.00000
Zn112 Zn 0.90331 0.74746 0.11327 0.00000
Zn113 Zn 0.82108 0.84768 0.06510 0.00000
C114 C 0.83868 0.93146 0.11337 0.00000
Zn115 Zn 0.93927 0.86479 0.09903 0.00000
C116 C 0.90528 0.87992 0.02138 0.00000
O117 O 0.80437 0.90914 0.09297 0.00000
O118 O 0.88722 0.92261 0.11461 0.00000
O119 O 0.93330 0.88511 0.04678 0.00000
O120 O 0.85677 0.86427 0.02122 0.00000
C121 C 0.72391 0.81082 0.03958 0.00000
C122 C 0.85407 0.65217 0.11582 0.00000
C123 C 0.93684 0.81183 0.17086 0.00000
C124 C 0.99990 0.76489 0.07666 0.00000
O125 O 0.84602 0.69811 0.11785 0.00000
O126 O 0.90300 0.63476 0.11737 0.00000
O127 O 0.87244 0.81216 0.09592 0.00000
O128 O 0.75462 0.80952 0.06431 0.00000
O129 O 0.72987 0.84578 0.01595 0.00000
O130 O 0.92144 0.76645 0.16155 0.00000
O131 O 0.94954 0.84665 0.15112 0.00000
O132 O 0.00503 0.80995 0.41709 0.00000
O133 O 0.03300 0.72992 0.41420 0.00000
Zn134 Zn 0.09669 0.74746 0.38673 0.00000
Zn135 Zn 0.17892 0.84768 0.43490 0.00000
C136 C 0.16132 0.93146 0.38663 0.00000
Zn137 Zn 0.06073 0.86479 0.40097 0.00000
C138 C 0.09472 0.87992 0.47862 0.00000
O139 O 0.19563 0.90914 0.40702 0.00000
O140 O 0.11278 0.92261 0.38538 0.00000
O141 O 0.06670 0.88511 0.45322 0.00000
O142 O 0.14323 0.86427 0.47877 0.00000
C143 C 0.27609 0.81082 0.46042 0.00000
C144 C 0.14593 0.65217 0.38418 0.00000
C145 C 0.06316 0.81183 0.32913 0.00000
C146 C 0.00010 0.76489 0.42334 0.00000
O147 O 0.15398 0.69811 0.38215 0.00000
O148 O 0.09700 0.63476 0.38263 0.00000
O149 O 0.12756 0.81216 0.40408 0.00000
O150 O 0.24538 0.80952 0.43569 0.00000
O151 O 0.27013 0.84578 0.48404 0.00000
O152 O 0.07856 0.76645 0.33845 0.00000
O153 O 0.05046 0.84665 0.34888 0.00000
O154 O 0.49497 0.69005 0.91710 0.00000
O155 O 0.46700 0.77008 0.91421 0.00000
Zn156 Zn 0.40331 0.75254 0.88674 0.00000
Zn157 Zn 0.32108 0.65232 0.93491 0.00000
C158 C 0.33868 0.56854 0.88664 0.00000
Zn159 Zn 0.43927 0.63521 0.90098 0.00000
C160 C 0.40528 0.62008 0.97862 0.00000
O161 O 0.30437 0.59086 0.90703 0.00000
O162 O 0.38722 0.57739 0.88539 0.00000
O163 O 0.43330 0.61489 0.95322 0.00000
O164 O 0.35677 0.63573 0.97878 0.00000
C165 C 0.22391 0.68918 0.96043 0.00000
C166 C 0.35407 0.84783 0.88418 0.00000
C167 C 0.43684 0.68817 0.82914 0.00000
C168 C 0.49965 0.73511 0.92334 0.00000
O169 O 0.34602 0.80188 0.88216 0.00000
O170 O 0.40300 0.86524 0.88264 0.00000
O171 O 0.37244 0.68784 0.90408 0.00000
O172 O 0.25462 0.69048 0.93569 0.00000
O173 O 0.22986 0.65422 0.98405 0.00000
O174 O 0.42144 0.73355 0.83845 0.00000
O175 O 0.44954 0.65335 0.84888 0.00000
C176 C 0.79624 0.96063 0.12207 0.00000
C177 C 0.76453 0.04369 0.10784 0.00000
C178 C 0.72670 0.02276 0.12563 0.00000
S179 S 0.75797 0.10789 0.09127 0.00000
S180 S 0.66498 0.05646 0.13500 0.00000
S181 S 0.82625 0.00999 0.09847 0.00000
S182 S 0.73326 0.95856 0.14220 0.00000
C183 C 0.69499 0.10581 0.11139 0.00000
C184 C 0.69230 0.89682 0.60749 0.00000
C185 C 0.75884 0.95438 0.62834 0.00000
C186 C 0.73240 0.97918 0.60513 0.00000
S187 S 0.81405 0.98347 0.65150 0.00000
S188 S 0.74908 0.04443 0.59444 0.00000
S189 S 0.74215 0.88912 0.63903 0.00000
S190 S 0.67718 0.95008 0.58197 0.00000
C191 C 0.79893 0.03673 0.62598 0.00000
C192 C 0.19064 0.39795 0.89236 0.00000
C193 C 0.23248 0.47225 0.86939 0.00000
C194 C 0.25875 0.46130 0.89715 0.00000
S195 S 0.25039 0.52665 0.84302 0.00000
S196 S 0.31499 0.49974 0.91125 0.00000
S197 S 0.17624 0.43381 0.85528 0.00000
S198 S 0.24084 0.40691 0.92352 0.00000
C199 C 0.30059 0.53561 0.87417 0.00000
C200 C 0.70238 0.53771 0.62564 0.00000
C201 C 0.76072 0.47508 0.60158 0.00000
C202 C 0.74805 0.45847 0.63189 0.00000
S203 S 0.80502 0.43937 0.57348 0.00000
S204 S 0.77388 0.39852 0.64798 0.00000
S205 S 0.73488 0.53504 0.58549 0.00000
S206 S 0.70375 0.49418 0.65999 0.00000
C207 C 0.80639 0.39584 0.60783 0.00000
C208 C 0.20048 0.96368 0.37401 0.00000
C209 C 0.26996 0.01959 0.39284 0.00000
C210 C 0.23881 0.04686 0.37369 0.00000
S211 S 0.32902 0.04659 0.41305 0.00000
S212 S 0.25245 0.11365 0.36598 0.00000
S213 S 0.25631 0.95280 0.40056 0.00000
S214 S 0.17975 0.01986 0.35349 0.00000
C215 C 0.30829 0.10277 0.39253 0.00000
C216 C 0.81019 0.60255 0.11311 0.00000
C217 C 0.76320 0.52517 0.10204 0.00000
C218 C 0.74557 0.54128 0.13143 0.00000
S219 S 0.73841 0.46667 0.08306 0.00000
S220 S 0.69509 0.50628 0.15530 0.00000
S221 S 0.81368 0.56017 0.07817 0.00000
S222 S 0.77036 0.59978 0.15041 0.00000
C223 C 0.69858 0.46390 0.12036 0.00000
C224 C 0.29823 0.46169 0.37958 0.00000
C225 C 0.23577 0.52839 0.36819 0.00000
C226 C 0.25546 0.53806 0.39834 0.00000
S227 S 0.18594 0.56958 0.34871 0.00000
S228 S 0.23433 0.59335 0.42280 0.00000
S229 S 0.25690 0.47310 0.34373 0.00000
S230 S 0.30529 0.49687 0.41782 0.00000
C231 C 0.19301 0.60476 0.38695 0.00000
C232 C 0.19825 0.03489 0.87465 0.00000
C233 C 0.24763 0.96617 0.89936 0.00000
C234 C 0.26114 0.96738 0.86717 0.00000
S235 S 0.27563 0.91936 0.92863 0.00000
S236 S 0.30885 0.92232 0.84951 0.00000
S237 S 0.19992 0.01123 0.91702 0.00000
S238 S 0.23313 0.01419 0.83790 0.00000
C239 C 0.31052 0.89866 0.89188 0.00000
C240 C 0.44635 0.56774 0.98548 0.00000
C241 C 0.48581 0.49626 0.01372 0.00000
C242 C 0.51418 0.50374 0.98629 0.00000
S243 S 0.50131 0.44513 0.04352 0.00000
S244 S 0.57105 0.46351 0.97609 0.00000
S245 S 0.42895 0.53649 0.02393 0.00000
S246 S 0.49869 0.55487 0.95649 0.00000
C247 C 0.55365 0.43226 0.01453 0.00000
C248 C 0.55608 0.56778 0.50989 0.00000
C249 C 0.48050 0.51550 0.49692 0.00000
C250 C 0.51950 0.48450 0.50308 0.00000
S251 S 0.41426 0.49240 0.48576 0.00000
S252 S 0.51011 0.41618 0.50089 0.00000
S253 S 0.48989 0.58382 0.49910 0.00000
S254 S 0.58574 0.50760 0.51424 0.00000
C255 C 0.44392 0.43222 0.49010 0.00000
C256 C 0.94556 0.93270 0.01424 0.00000
C257 C 0.98965 0.00010 0.98471 0.00000
C258 C 0.01035 0.99990 0.01528 0.00000
S259 S 0.01127 0.04667 0.95282 0.00000
S260 S 0.06215 0.04410 0.02795 0.00000
S261 S 0.93785 0.95589 0.97204 0.00000
S262 S 0.98873 0.95333 0.04717 0.00000
C263 C 0.05444 0.06730 0.98575 0.00000
C264 C 0.05594 0.93333 0.48685 0.00000
C265 C 0.99990 0.99298 0.51598 0.00000
C266 C 0.00010 0.00702 0.48402 0.00000
S267 S 0.96168 0.02770 0.54815 0.00000
S268 S 0.96287 0.06223 0.46959 0.00000
S269 S 0.03713 0.93777 0.53041 0.00000
S270 S 0.03832 0.97230 0.45185 0.00000
C271 C 0.94406 0.06667 0.51316 0.00000
C272 C 0.44422 0.29965 0.29717 0.00000
C273 C 0.49561 0.27224 0.24862 0.00000
C274 C 0.50439 0.32048 0.25138 0.00000
S275 S 0.52683 0.23485 0.21480 0.00000
S276 S 0.54841 0.35344 0.22159 0.00000
S277 S 0.45159 0.23928 0.27841 0.00000
S278 S 0.47317 0.35787 0.28520 0.00000
C279 C 0.55578 0.29308 0.20284 0.00000
C280 C 0.44757 0.70788 0.79871 0.00000
C281 C 0.48035 0.69348 0.74163 0.00000
C282 C 0.51965 0.71380 0.75838 0.00000
S283 S 0.48705 0.67580 0.69657 0.00000
S284 S 0.58367 0.72575 0.73775 0.00000
S285 S 0.41634 0.68152 0.76226 0.00000
S286 S 0.51295 0.73148 0.80343 0.00000
C287 C 0.55243 0.69939 0.70130 0.00000
C288 C 0.94395 0.20066 0.70296 0.00000
C289 C 0.99769 0.22810 0.75043 0.00000
C290 C 0.00230 0.17918 0.74957 0.00000
S291 S 0.03213 0.26577 0.78277 0.00000
S292 S 0.04347 0.14553 0.78067 0.00000
S293 S 0.95653 0.26175 0.71932 0.00000
S294 S 0.96787 0.14151 0.71723 0.00000
C295 C 0.05605 0.20662 0.79704 0.00000
C296 C 0.94314 0.79777 0.20332 0.00000
C297 C 0.01718 0.80980 0.24149 0.00000
C298 C 0.98282 0.78292 0.25850 0.00000
S299 S 0.08057 0.82845 0.26057 0.00000
S300 S 0.99611 0.76238 0.30238 0.00000
S301 S 0.00389 0.83034 0.19762 0.00000
S302 S 0.91943 0.76428 0.23943 0.00000
C303 C 0.05686 0.79496 0.29667 0.00000
C304 C 0.44802 0.26519 0.06004 0.00000
C305 C 0.37888 0.21889 0.03128 0.00000
C306 C 0.39474 0.25294 0.00952 0.00000
S307 S 0.32605 0.17432 0.02041 0.00000
S308 S 0.36504 0.25802 0.96692 0.00000
S309 S 0.40859 0.21380 0.07388 0.00000
S310 S 0.44758 0.29751 0.02038 0.00000
C311 C 0.32561 0.20664 0.98076 0.00000
C312 C 0.32319 0.78505 0.47993 0.00000
C313 C 0.37540 0.77901 0.53141 0.00000
C314 C 0.39823 0.74916 0.50938 0.00000
S315 S 0.40167 0.78664 0.57476 0.00000
S316 S 0.45778 0.71325 0.52061 0.00000
S317 S 0.31585 0.81492 0.52018 0.00000
S318 S 0.37196 0.74153 0.46603 0.00000
C319 C 0.45044 0.74312 0.56087 0.00000
C320 C 0.95137 0.24291 0.93979 0.00000
C321 C 0.89304 0.24431 0.98865 0.00000
C322 C 0.88059 0.28386 0.97056 0.00000
S323 S 0.85860 0.22976 0.02867 0.00000
S324 S 0.82797 0.32697 0.98422 0.00000
S325 S 0.94566 0.20120 0.97498 0.00000
S326 S 0.91503 0.29841 0.93053 0.00000
C327 C 0.82226 0.28526 0.01941 0.00000
C328 C 0.05045 0.24298 0.56141 0.00000
C329 C 0.09803 0.25458 0.50852 0.00000
C330 C 0.12834 0.27360 0.53228 0.00000
S331 S 0.11825 0.25494 0.46354 0.00000
S332 S 0.19273 0.30170 0.52194 0.00000
S333 S 0.03363 0.22648 0.51886 0.00000
S334 S 0.10812 0.27323 0.57726 0.00000
C335 C 0.17592 0.28519 0.47938 0.00000
C336 C 0.55208 0.26517 0.43989 0.00000
C337 C 0.62055 0.21837 0.46894 0.00000
C338 C 0.60582 0.25346 0.49027 0.00000
S339 S 0.67250 0.17306 0.48017 0.00000
S340 S 0.63628 0.25931 0.53260 0.00000
S341 S 0.59009 0.21252 0.42661 0.00000
S342 S 0.55387 0.29876 0.47904 0.00000
C343 C 0.67429 0.20666 0.51931 0.00000
C344 C 0.17749 0.71483 0.98040 0.00000
C345 C 0.12098 0.71737 0.03011 0.00000
C346 C 0.10539 0.75446 0.01069 0.00000
S347 S 0.08899 0.70454 0.07124 0.00000
S348 S 0.05065 0.79572 0.02350 0.00000
S349 S 0.17572 0.67611 0.01730 0.00000
S350 S 0.13738 0.76729 0.96956 0.00000
C351 C 0.04888 0.75699 0.06040 0.00000
C352 C 0.82184 0.71448 0.51906 0.00000
C353 C 0.88355 0.71430 0.47195 0.00000
C354 C 0.89008 0.75752 0.48725 0.00000
S355 S 0.92260 0.69725 0.43420 0.00000
S356 S 0.93866 0.80349 0.47179 0.00000
S357 S 0.83497 0.66834 0.48742 0.00000
S358 S 0.85103 0.77457 0.52500 0.00000
C359 C 0.95179 0.75735 0.44014 0.00000
C360 C 0.67366 0.78693 0.02159 0.00000
C361 C 0.63265 0.75685 0.96977 0.00000
C362 C 0.59371 0.77132 0.98943 0.00000
S363 S 0.62026 0.73089 0.92713 0.00000
S364 S 0.52455 0.76647 0.97545 0.00000
S365 S 0.70182 0.76170 0.98376 0.00000
S366 S 0.60611 0.79728 0.03207 0.00000
C367 C 0.55271 0.74124 0.93762 0.00000
loop_
_geom_bond_atom_site_label_1
_geom_bond_atom_site_label_2
_geom_bond_distance
_geom_bond_site_symmetry_2
_ccdc_geom_bond_type
O0 Zn5 2.077 . S
O0 C14 1.203 . A
O1 Zn2 1.948 . S
O1 C14 1.266 . A
Zn2 O15 1.919 . S
Zn2 O17 1.965 . S
Zn2 O20 1.968 . S
Zn3 O7 1.968 . S
Zn3 O10 1.948 . S
Zn3 O17 1.965 . S
Zn3 O18 1.919 . S
C4 O7 1.291 . A
C4 O8 1.222 . A
Zn5 O8 2.068 . S
Zn5 O9 2.077 . S
Zn5 O17 2.149 . S
Zn5 O21 2.068 . S
C6 O9 1.203 . A
C6 O10 1.266 . A
C11 O18 1.215 . S
C11 O19 1.292 . D
C12 O15 1.215 . S
C12 O16 1.292 . D
C13 O20 1.291 . A
C13 O21 1.222 . A
O22 Zn27 2.077 . S
O22 C36 1.203 . A
O23 Zn24 1.948 . S
O23 C36 1.266 . A
Zn24 O37 1.919 . S
Zn24 O39 1.965 . S
Zn24 O42 1.968 . S
Zn25 O29 1.968 . S
Zn25 O32 1.948 . S
Zn25 O39 1.965 . S
Zn25 O40 1.919 . S
C26 O29 1.291 . A
C26 O30 1.222 . A
Zn27 O30 2.068 . S
Zn27 O31 2.077 . S
Zn27 O39 2.149 . S
Zn27 O43 2.068 . S
C28 O31 1.203 . A
C28 O32 1.266 . A
C33 O40 1.215 . S
C33 O41 1.292 . D
C34 O37 1.215 . S
C34 O38 1.292 . D
C35 O42 1.291 . A
C35 O43 1.222 . A
O44 Zn49 2.077 . S
O44 C58 1.203 . A
O45 Zn46 1.948 . S
O45 C58 1.270 . A
Zn46 O59 1.919 . S
Zn46 O61 1.965 . S
Zn46 O64 1.968 . S
Zn47 O51 1.968 . S
Zn47 O54 1.948 . S
Zn47 O61 1.965 . S
Zn47 O62 1.919 . S
C48 O51 1.291 . A
C48 O52 1.222 . A
Zn49 O52 2.068 . S
Zn49 O53 2.077 . S
Zn49 O61 2.149 . S
Zn49 O65 2.068 . S
C50 O53 1.203 . A
C50 O54 1.266 . A
C55 O62 1.215 . S
C55 O63 1.292 . D
C56 O59 1.215 . S
C56 O60 1.292 . D
C57 O64 1.291 . A
C57 O65 1.222 . A
O66 Zn71 2.077 . S
O66 C80 1.203 . A
O67 Zn68 1.948 . S
O67 C80 1.270 . A
Zn68 O81 1.919 . S
Zn68 O83 1.965 . S
Zn68 O86 1.968 . S
Zn69 O73 1.968 . S
Zn69 O76 1.948 . S
Zn69 O83 1.965 . S
Zn69 O84 1.919 . S
C70 O73 1.291 . A
C70 O74 1.222 . A
Zn71 O74 2.068 . S
Zn71 O75 2.077 . S
Zn71 O83 2.149 . S
Zn71 O87 2.068 . S
C72 O75 1.203 . A
C72 O76 1.266 . A
C77 O84 1.215 . S
C77 O85 1.292 . D
C78 O81 1.215 . S
C78 O82 1.292 . D
C79 O86 1.291 . A
C79 O87 1.222 . A
O88 Zn93 2.077 . S
O88 C102 1.203 . A
O89 Zn90 1.948 . S
O89 C102 1.266 . A
Zn90 O103 1.919 . S
Zn90 O105 1.965 . S
Zn90 O108 1.968 . S
Zn91 O95 1.968 . S
Zn91 O98 1.948 . S
Zn91 O105 1.965 . S
Zn91 O106 1.919 . S
C92 O95 1.291 . A
C92 O96 1.222 . A
Zn93 O96 2.068 . S
Zn93 O97 2.077 . S
Zn93 O105 2.149 . S
Zn93 O109 2.068 . S
C94 O97 1.203 . A
C94 O98 1.266 . A
C99 O106 1.215 . S
C99 O107 1.292 . D
C100 O103 1.215 . S
C100 O104 1.292 . D
C101 O108 1.291 . A
C101 O109 1.222 . A
O110 Zn115 2.077 . S
O110 C124 1.203 . A
O111 Zn112 1.948 . S
O111 C124 1.270 . A
Zn112 O125 1.919 . S
Zn112 O127 1.965 . S
Zn112 O130 1.968 . S
Zn113 O117 1.968 . S
Zn113 O120 1.948 . S
Zn113 O127 1.965 . S
Zn113 O128 1.919 . S
C114 O117 1.291 . A
C114 O118 1.222 . A
Zn115 O118 2.068 . S
Zn115 O119 2.077 . S
Zn115 O127 2.149 . S
Zn115 O131 2.068 . S
C116 O119 1.203 . A
C116 O120 1.266 . A
C121 O128 1.215 . S
C121 O129 1.292 . D
C122 O125 1.215 . S
C122 O126 1.292 . D
C123 O130 1.291 . A
C123 O131 1.222 . A
O132 Zn137 2.077 . S
O132 C146 1.203 . A
O133 Zn134 1.948 . S
O133 C146 1.270 . A
Zn134 O147 1.919 . S
Zn134 O149 1.965 . S
Zn134 O152 1.968 . S
Zn135 O139 1.968 . S
Zn135 O142 1.948 . S
Zn135 O149 1.965 . S
Zn135 O150 1.919 . S
C136 O139 1.291 . A
C136 O140 1.222 . A
Zn137 O140 2.068 . S
Zn137 O141 2.077 . S
Zn137 O149 2.149 . S
Zn137 O153 2.068 . S
C138 O141 1.203 . A
C138 O142 1.266 . A
C143 O150 1.215 . S
C143 O151 1.292 . D
C144 O147 1.215 . S
C144 O148 1.292 . D
C145 O152 1.291 . A
C145 O153 1.222 . A
O154 Zn159 2.077 . S
O154 C168 1.203 . A
O155 Zn156 1.948 . S
O155 C168 1.266 . A
Zn156 O169 1.919 . S
Zn156 O171 1.965 . S
Zn156 O174 1.968 . S
Zn157 O161 1.968 . S
Zn157 O164 1.948 . S
Zn157 O171 1.965 . S
Zn157 O172 1.919 . S
C158 O161 1.291 . A
C158 O162 1.222 . A
Zn159 O162 2.068 . S
Zn159 O163 2.077 . S
Zn159 O171 2.149 . S
Zn159 O175 2.068 . S
C160 O163 1.203 . A
C160 O164 1.266 . A
C165 O172 1.215 . S
C165 O173 1.292 . D
C166 O169 1.215 . S
C166 O170 1.292 . D
C167 O174 1.291 . A
C167 O175 1.222 . A
C176 S181 1.738 1_565 A
C176 S182 1.738 . A
C177 C178 1.279 . A
C177 S179 1.795 . A
C177 S181 1.795 . A
C178 S180 1.795 . A
C178 S182 1.795 1_545 A
S179 C183 1.738 . A
S180 C183 1.738 . A
C184 S189 1.738 . A
C184 S190 1.738 . A
C185 C186 1.279 . A
C185 S187 1.795 . A
C185 S189 1.795 . A
C186 S188 1.795 1_565 A
C186 S190 1.795 . A
S187 C191 1.738 1_565 A
S188 C191 1.738 . A
C192 S197 1.738 . A
C192 S198 1.738 . A
C193 C194 1.279 . A
C193 S195 1.795 . A
C193 S197 1.795 . A
C194 S196 1.795 . A
C194 S198 1.795 . A
S195 C199 1.738 . A
S196 C199 1.738 . A
C200 S205 1.738 . A
C200 S206 1.738 . A
C201 C202 1.279 . A
C201 S203 1.795 . A
C201 S205 1.795 . A
C202 S204 1.795 . A
C202 S206 1.795 . A
S203 C207 1.738 . A
S204 C207 1.738 . A
C208 S213 1.738 . A
C208 S214 1.738 1_565 A
C209 C210 1.279 . A
C209 S211 1.795 . A
C209 S213 1.795 1_545 A
C210 S212 1.795 . A
C210 S214 1.795 . A
S211 C215 1.738 . A
S212 C215 1.738 . A
C216 S221 1.738 . A
C216 S222 1.738 . A
C217 C218 1.279 . A
C217 S219 1.795 . A
C217 S221 1.795 . A
C218 S220 1.795 . A
C218 S222 1.795 . A
S219 C223 1.738 . A
S220 C223 1.738 . A
C224 S229 1.738 . A
C224 S230 1.738 . A
C225 C226 1.279 . A
C225 S227 1.795 . A
C225 S229 1.795 . A
C226 S228 1.795 . A
C226 S230 1.795 . A
S227 C231 1.738 . A
S228 C231 1.738 . A
C232 S237 1.738 . A
C232 S238 1.738 . A
C233 C234 1.279 . A
C233 S235 1.795 . A
C233 S237 1.795 1_565 A
C234 S236 1.795 . A
C234 S238 1.795 1_565 A
S235 C239 1.738 . A
S236 C239 1.738 . A
C240 S245 1.738 1_556 A
C240 S246 1.738 . A
C241 C242 1.279 1_554 A
C241 S243 1.795 . A
C241 S245 1.795 . A
C242 S244 1.795 . A
C242 S246 1.795 . A
S243 C247 1.738 . A
S244 C247 1.738 1_556 A
C248 S253 1.738 . A
C248 S254 1.738 . A
C249 C250 1.279 . A
C249 S251 1.795 . A
C249 S253 1.795 . A
C250 S252 1.795 . A
C250 S254 1.795 . A
S251 C255 1.738 . A
S252 C255 1.738 . A
C256 S261 1.738 1_554 A
C256 S262 1.738 . A
C257 C258 1.279 1_646 A
C257 S259 1.803 1_655 A
C257 S261 1.788 1_545 A
C258 S260 1.788 1_565 A
C258 S262 1.803 1_455 A
S259 C263 1.738 . A
S260 C263 1.738 1_554 A
C264 S269 1.738 . A
C264 S270 1.738 . A
C265 C266 1.279 1_665 A
C265 S267 1.797 1_565 A
C265 S269 1.794 1_655 A
C266 S268 1.794 1_455 A
C266 S270 1.797 1_545 A
S267 C271 1.738 . A
S268 C271 1.738 . A
C272 S277 1.738 . A
C272 S278 1.738 . A
C273 C274 1.279 . A
C273 S275 1.795 . A
C273 S277 1.795 . A
C274 S276 1.795 . A
C274 S278 1.795 . A
S275 C279 1.738 . A
S276 C279 1.738 . A
C280 S285 1.738 . A
C280 S286 1.738 . A
C281 C282 1.279 . A
C281 S283 1.795 . A
C281 S285 1.795 . A
C282 S284 1.795 . A
C282 S286 1.795 . A
S283 C287 1.738 . A
S284 C287 1.738 . A
C288 S293 1.738 . A
C288 S294 1.738 . A
C289 C290 1.279 1_655 A
C289 S291 1.795 1_655 A
C289 S293 1.795 . A
C290 S292 1.795 . A
C290 S294 1.795 1_455 A
S291 C295 1.738 . A
S292 C295 1.738 . A
C296 S301 1.738 1_655 A
C296 S302 1.738 . A
C297 C298 1.279 1_455 A
C297 S299 1.795 . A
C297 S301 1.795 . A
C298 S300 1.795 . A
C298 S302 1.795 . A
S299 C303 1.738 . A
S300 C303 1.738 1_655 A
C304 S309 1.738 . A
C304 S310 1.738 . A
C305 C306 1.279 . A
C305 S307 1.795 . A
C305 S309 1.795 . A
C306 S308 1.795 1_554 A
C306 S310 1.795 . A
S307 C311 1.738 1_554 A
S308 C311 1.738 . A
C312 S317 1.738 . A
C312 S318 1.738 . A
C313 C314 1.279 . A
C313 S315 1.795 . A
C313 S317 1.795 . A
C314 S316 1.795 . A
C314 S318 1.795 . A
S315 C319 1.738 . A
S316 C319 1.738 . A
C320 S325 1.738 . A
C320 S326 1.738 . A
C321 C322 1.279 . A
C321 S323 1.795 1_556 A
C321 S325 1.795 . A
C322 S324 1.795 . A
C322 S326 1.795 . A
S323 C327 1.738 . A
S324 C327 1.738 1_556 A
C328 S333 1.738 . A
C328 S334 1.738 . A
C329 C330 1.279 . A
C329 S331 1.795 . A
C329 S333 1.795 . A
C330 S332 1.795 . A
C330 S334 1.795 . A
S331 C335 1.738 . A
S332 C335 1.738 . A
C336 S341 1.738 . A
C336 S342 1.738 . A
C337 C338 1.279 . A
C337 S339 1.795 . A
C337 S341 1.795 . A
C338 S340 1.795 . A
C338 S342 1.795 . A
S339 C343 1.738 . A
S340 C343 1.738 . A
C344 S349 1.738 1_556 A
C344 S350 1.738 . A
C345 C346 1.279 . A
C345 S347 1.795 . A
C345 S349 1.795 . A
C346 S348 1.795 . A
C346 S350 1.795 1_554 A
S347 C351 1.738 . A
S348 C351 1.738 . A
C352 S357 1.738 . A
C352 S358 1.738 . A
C353 C354 1.279 . A
C353 S355 1.795 . A
C353 S357 1.795 . A
C354 S356 1.795 . A
C354 S358 1.795 . A
S355 C359 1.738 . A
S356 C359 1.738 . A
C360 S365 1.738 1_554 A
C360 S366 1.738 . A
C361 C362 1.279 . A
C361 S363 1.795 . A
C361 S365 1.795 . A
C362 S364 1.795 . A
C362 S366 1.795 1_556 A
S363 C367 1.738 . A
S364 C367 1.738 . A
C176 C114 1.337 . S
C183 C12 1.719 . S
C184 C34 1.744 . S
C191 C70 1.372 . S
C192 C56 1.738 . S
C199 C158 1.360 . S
C200 C26 1.376 . S
C207 C78 1.745 . S
C208 C136 1.369 . S
C215 C100 1.742 . S
C216 C122 1.690 . S
C223 C4 1.278 . S
C224 C92 1.300 . S
C231 C144 1.699 . S
C232 C48 1.345 . S
C239 C166 1.731 . S
C240 C160 1.719 . S
C247 C6 1.719 . S
C248 C28 1.720 . S
C255 C94 1.720 . S
C256 C116 1.718 . S
C263 C50 1.718 . S
C264 C138 1.718 . S
C271 C72 1.718 . S
C272 C101 1.279 . S
C279 C13 1.332 . S
C280 C167 1.302 . S
C287 C35 1.232 . S
C288 C79 1.284 . S
C295 C57 1.332 . S
C296 C123 1.307 . S
C303 C145 1.329 . S
C304 C14 1.442 . S
C311 C55 1.520 . S
C312 C143 1.537 . S
C319 C36 1.389 . S
C320 C58 1.375 1_655 S
C327 C11 1.530 . S
C328 C80 1.394 1_455 S
C335 C99 1.543 . S
C336 C102 1.442 . S
C343 C77 1.521 . S
C344 C165 1.532 . S
C351 C124 1.377 1_455 S
C352 C33 1.526 . S
C359 C146 1.371 1_655 S
C360 C121 1.550 . S
C367 C168 1.430 . S
