# Generated by pormake.
# Topology vbn, (6)-cn, num edge types: 1
# Building blocks:
#     Node 0, Type 0, BuildingBlock: N125, # of connection points: 6
#     Node 1, Type 0, BuildingBlock: N125, # of connection points: 6
#     Node 2, Type 0, BuildingBlock: N125, # of connection points: 6
#     Node 3, Type 0, BuildingBlock: N125, # of connection points: 6
#     Node 4, Type 0, BuildingBlock: N125, # of connection points: 6
#     Node 5, Type 0, BuildingBlock: N125, # of connection points: 6
#     Node 6, Type 0, BuildingBlock: N125, # of connection points: 6
#     Node 7, Type 0, BuildingBlock: N125, # of connection points: 6
#     Edge 8, Type (0, 0), BuildingBlock: E89, # of connection points: 2
#     Edge 9, Type (0, 0), BuildingBlock: E89, # of connection points: 2
#     Edge 10, Type (0, 0), BuildingBlock: E89, # of connection points: 2
#     Edge 11, Type (0, 0), BuildingBlock: E89, # of connection points: 2
#     Edge 12, Type (0, 0), BuildingBlock: E89, # of connection points: 2
#     Edge 13, Type (0, 0), BuildingBlock: E89, # of connection points: 2
#     Edge 14, Type (0, 0), BuildingBlock: E89, # of connection points: 2
#     Edge 15, Type (0, 0), BuildingBlock: E89, # of connection points: 2
#     Edge 16, Type (0, 0), BuildingBlock: E89, # of connection points: 2
#     Edge 17, Type (0, 0), BuildingBlock: E89, # of connection points: 2
#     Edge 18, Type (0, 0), BuildingBlock: E89, # of connection points: 2
#     Edge 19, Type (0, 0), BuildingBlock: E89, # of connection points: 2
#     Edge 20, Type (0, 0), BuildingBlock: E89, # of connection points: 2
#     Edge 21, Type (0, 0), BuildingBlock: E89, # of connection points: 2
#     Edge 22, Type (0, 0), BuildingBlock: E89, # of connection points: 2
#     Edge 23, Type (0, 0), BuildingBlock: E89, # of connection points: 2
#     Edge 24, Type (0, 0), BuildingBlock: E89, # of connection points: 2
#     Edge 25, Type (0, 0), BuildingBlock: E89, # of connection points: 2
#     Edge 26, Type (0, 0), BuildingBlock: E89, # of connection points: 2
#     Edge 27, Type (0, 0), BuildingBlock: E89, # of connection points: 2
#     Edge 28, Type (0, 0), BuildingBlock: E89, # of connection points: 2
#     Edge 29, Type (0, 0), BuildingBlock: E89, # of connection points: 2
#     Edge 30, Type (0, 0), BuildingBlock: E89, # of connection points: 2
#     Edge 31, Type (0, 0), BuildingBlock: E89, # of connection points: 2
# Relax obj value: 0.262
# Max RMSD: 0.255
# Mean RMSD: 0.253
data_vbn+N125+E89
_symmetry_space_group_name_H-M    P1
_symmetry_Int_Tables_number       1
_symmetry_cell_setting            triclinic
loop_
_symmetry_equiv_pos_as_xyz
'x, y, z'
_cell_length_a     18.914
_cell_length_b     20.883
_cell_length_c     33.416
_cell_angle_alpha  90.000
_cell_angle_beta   89.738
_cell_angle_gamma  90.000
loop_
_atom_site_label
_atom_site_type_symbol
_atom_site_fract_x
_atom_site_fract_y
_atom_site_fract_z
_atom_type_partial_charge
O0 O 0.54638 0.40346 0.04573 0.00000
Cu1 Cu 0.53847 0.37284 0.09839 0.00000
O2 O 0.70171 0.39036 0.13119 0.00000
Cu3 Cu 0.69468 0.30090 0.12707 0.00000
Cu4 Cu 0.61686 0.25943 0.03743 0.00000
O5 O 0.71285 0.27903 0.02973 0.00000
O6 O 0.68698 0.21154 0.12262 0.00000
O7 O 0.53123 0.34169 0.15097 0.00000
O8 O 0.52086 0.24027 0.04556 0.00000
O9 O 0.47242 0.31035 0.08323 0.00000
O10 O 0.62775 0.29724 0.16869 0.00000
O11 O 0.63890 0.18591 0.06723 0.00000
C12 C 0.57170 0.38683 0.01393 0.00000
O13 O 0.76094 0.30466 0.08512 0.00000
O14 O 0.60518 0.43481 0.11347 0.00000
C15 C 0.66677 0.43750 0.12344 0.00000
O16 O 0.59481 0.33339 0.00806 0.00000
C17 C 0.76253 0.29895 0.04896 0.00000
C18 C 0.66186 0.17222 0.10001 0.00000
C19 C 0.56611 0.31076 0.17448 0.00000
C20 C 0.47104 0.26009 0.06497 0.00000
O21 O 0.47242 0.68965 0.58322 0.00000
Cu22 Cu 0.53847 0.62716 0.59839 0.00000
O23 O 0.62775 0.70276 0.66869 0.00000
Cu24 Cu 0.69468 0.69910 0.62706 0.00000
Cu25 Cu 0.61685 0.74057 0.53742 0.00000
O26 O 0.63889 0.81408 0.56723 0.00000
O27 O 0.76094 0.69534 0.58511 0.00000
O28 O 0.60518 0.56519 0.61346 0.00000
O29 O 0.59481 0.66661 0.50805 0.00000
O30 O 0.54638 0.59653 0.54572 0.00000
O31 O 0.70170 0.60964 0.63118 0.00000
O32 O 0.71285 0.72097 0.52972 0.00000
C33 C 0.47104 0.73990 0.56497 0.00000
O34 O 0.68698 0.78846 0.62261 0.00000
O35 O 0.53123 0.65831 0.65097 0.00000
C36 C 0.56610 0.68923 0.67448 0.00000
O37 O 0.52085 0.75972 0.54556 0.00000
C38 C 0.66186 0.82778 0.60000 0.00000
C39 C 0.76252 0.70105 0.54896 0.00000
C40 C 0.66677 0.56250 0.62344 0.00000
C41 C 0.57170 0.61317 0.51392 0.00000
O42 O 0.18439 0.29911 0.88757 0.00000
Cu43 Cu 0.20140 0.21156 0.87907 0.00000
O44 O 0.04882 0.16359 0.84201 0.00000
Cu45 Cu 0.04738 0.12532 0.89286 0.00000
Cu46 Cu 0.10084 0.23415 0.96444 0.00000
O47 O 0.00586 0.24790 0.95075 0.00000
O48 O 0.04653 0.08761 0.94387 0.00000
O49 O 0.21769 0.12383 0.87083 0.00000
O50 O 0.19595 0.22001 0.97768 0.00000
O51 O 0.25809 0.20606 0.92492 0.00000
O52 O 0.12252 0.07054 0.87936 0.00000
O53 O 0.07956 0.15485 0.98810 0.00000
C54 C 0.15087 0.33309 0.91023 0.00000
O55 O 0.97283 0.18066 0.90652 0.00000
O56 O 0.14399 0.21687 0.83348 0.00000
C57 C 0.08557 0.20015 0.82279 0.00000
O58 O 0.12225 0.31306 0.94033 0.00000
C59 C 0.96272 0.22774 0.92709 0.00000
C60 C 0.06303 0.10110 0.97792 0.00000
C61 C 0.18588 0.07351 0.87362 0.00000
C62 C 0.25119 0.20645 0.96107 0.00000
O63 O 0.81529 0.29756 0.61246 0.00000
Cu64 Cu 0.79829 0.21004 0.62104 0.00000
O65 O 0.95087 0.16217 0.65816 0.00000
Cu66 Cu 0.95233 0.12379 0.60734 0.00000
Cu67 Cu 0.89887 0.23244 0.53565 0.00000
O68 O 0.99384 0.24623 0.54934 0.00000
O69 O 0.95320 0.08596 0.55636 0.00000
O70 O 0.78201 0.12232 0.62936 0.00000
O71 O 0.80376 0.21826 0.52243 0.00000
O72 O 0.74161 0.20442 0.57519 0.00000
O73 O 0.87719 0.06903 0.62089 0.00000
O74 O 0.92016 0.15309 0.51207 0.00000
C75 C 0.84881 0.33150 0.58977 0.00000
O76 O 0.02688 0.17910 0.59363 0.00000
O77 O 0.85569 0.21546 0.66663 0.00000
C78 C 0.91412 0.19877 0.67734 0.00000
O79 O 0.87744 0.31140 0.55970 0.00000
C80 C 0.03699 0.22614 0.57302 0.00000
C81 C 0.93670 0.09937 0.52230 0.00000
C82 C 0.81384 0.07200 0.62662 0.00000
C83 C 0.74853 0.20473 0.53904 0.00000
O84 O 0.31599 0.20099 0.38785 0.00000
Cu85 Cu 0.29906 0.28854 0.37938 0.00000
O86 O 0.45197 0.33650 0.34196 0.00000
Cu87 Cu 0.45297 0.37477 0.39281 0.00000
Cu88 Cu 0.39886 0.26596 0.46452 0.00000
O89 O 0.49396 0.25220 0.45061 0.00000
O90 O 0.45336 0.41249 0.44382 0.00000
O91 O 0.28285 0.37627 0.37118 0.00000
O92 O 0.30363 0.28010 0.47798 0.00000
O93 O 0.24196 0.29405 0.42537 0.00000
O94 O 0.37795 0.42955 0.37948 0.00000
O95 O 0.41993 0.34525 0.48813 0.00000
C96 C 0.34930 0.16701 0.41043 0.00000
O97 O 0.52739 0.31943 0.40631 0.00000
O98 O 0.35687 0.28322 0.33366 0.00000
C99 C 0.41540 0.29994 0.32283 0.00000
O100 O 0.37766 0.18704 0.44046 0.00000
C101 C 0.53732 0.27235 0.42685 0.00000
C102 C 0.43656 0.39900 0.47791 0.00000
C103 C 0.31464 0.42659 0.37389 0.00000
C104 C 0.24854 0.29366 0.46149 0.00000
O105 O 0.74161 0.79558 0.07520 0.00000
Cu106 Cu 0.79829 0.78996 0.12105 0.00000
O107 O 0.87719 0.93097 0.12089 0.00000
Cu108 Cu 0.95233 0.87621 0.10734 0.00000
Cu109 Cu 0.89887 0.76757 0.03566 0.00000
O110 O 0.92016 0.84691 0.01208 0.00000
O111 O 0.02688 0.82090 0.09363 0.00000
O112 O 0.85569 0.78454 0.16663 0.00000
O113 O 0.87744 0.68860 0.05970 0.00000
O114 O 0.81529 0.70244 0.11246 0.00000
O115 O 0.95087 0.83783 0.15816 0.00000
O116 O 0.99384 0.75377 0.04934 0.00000
C117 C 0.74852 0.79528 0.03905 0.00000
O118 O 0.95320 0.91405 0.05637 0.00000
O119 O 0.78201 0.87768 0.12937 0.00000
C120 C 0.81384 0.92800 0.12662 0.00000
O121 O 0.80376 0.78174 0.02243 0.00000
C122 C 0.93670 0.90064 0.02230 0.00000
C123 C 0.03699 0.77386 0.07303 0.00000
C124 C 0.91412 0.80123 0.17735 0.00000
C125 C 0.84881 0.66850 0.08978 0.00000
O126 O 0.25809 0.79394 0.42493 0.00000
Cu127 Cu 0.20140 0.78844 0.37907 0.00000
O128 O 0.12252 0.92946 0.37936 0.00000
Cu129 Cu 0.04738 0.87468 0.39287 0.00000
Cu130 Cu 0.10084 0.76585 0.46445 0.00000
O131 O 0.07956 0.84515 0.48811 0.00000
O132 O 0.97283 0.81934 0.40653 0.00000
O133 O 0.14399 0.78313 0.33349 0.00000
O134 O 0.12225 0.68694 0.44033 0.00000
O135 O 0.18439 0.70089 0.38758 0.00000
O136 O 0.04882 0.83641 0.34201 0.00000
O137 O 0.00586 0.75210 0.45076 0.00000
C138 C 0.25119 0.79355 0.46107 0.00000
O139 O 0.04653 0.91239 0.44388 0.00000
O140 O 0.21769 0.87617 0.37084 0.00000
C141 C 0.18588 0.92649 0.37363 0.00000
O142 O 0.19595 0.77999 0.47768 0.00000
C143 C 0.06303 0.89890 0.47793 0.00000
C144 C 0.96272 0.77226 0.42709 0.00000
C145 C 0.08557 0.79985 0.32279 0.00000
C146 C 0.15087 0.66691 0.41024 0.00000
O147 O 0.24196 0.70595 0.92536 0.00000
Cu148 Cu 0.29906 0.71146 0.87937 0.00000
O149 O 0.37795 0.57045 0.87947 0.00000
Cu150 Cu 0.45297 0.62523 0.89281 0.00000
Cu151 Cu 0.39886 0.73404 0.96451 0.00000
O152 O 0.41993 0.65475 0.98812 0.00000
O153 O 0.52739 0.68057 0.90630 0.00000
O154 O 0.35687 0.71678 0.83365 0.00000
O155 O 0.37766 0.81296 0.94045 0.00000
O156 O 0.31599 0.79901 0.88784 0.00000
O157 O 0.45197 0.66350 0.84195 0.00000
O158 O 0.49396 0.74780 0.95060 0.00000
C159 C 0.24854 0.70634 0.96149 0.00000
O160 O 0.45336 0.58751 0.94381 0.00000
O161 O 0.28284 0.62373 0.87117 0.00000
C162 C 0.31464 0.57341 0.87388 0.00000
O163 O 0.30363 0.71990 0.97797 0.00000
C164 C 0.43656 0.60100 0.97790 0.00000
C165 C 0.53732 0.72765 0.92684 0.00000
C166 C 0.41540 0.70006 0.82282 0.00000
C167 C 0.34930 0.83299 0.91042 0.00000
H168 H 0.84370 0.00521 0.19797 0.00000
H169 H 0.83002 0.09114 0.24732 0.00000
H170 H 0.53749 0.06424 0.11094 0.00000
H171 H 0.48934 0.95904 0.12171 0.00000
C172 C 0.77442 0.99672 0.12148 0.00000
C173 C 0.79012 0.03382 0.08263 0.00000
C174 C 0.84564 0.02001 0.05600 0.00000
C175 C 0.85647 0.05832 0.02234 0.00000
C176 C 0.68733 0.09985 0.10667 0.00000
C177 C 0.74493 0.08723 0.07493 0.00000
C178 C 0.75656 0.12493 0.04077 0.00000
C179 C 0.81217 0.11044 0.01476 0.00000
H180 H 0.69340 0.87965 0.13737 0.00000
H181 H 0.56712 0.86696 0.13489 0.00000
H182 H 0.68594 0.19119 0.17129 0.00000
H183 H 0.75176 0.18340 0.23410 0.00000
H184 H 0.88102 0.98044 0.06109 0.00000
H185 H 0.89991 0.04773 0.00238 0.00000
H186 H 0.72366 0.16567 0.03417 0.00000
H187 H 0.82119 0.14030 0.98889 0.00000
C188 C 0.77477 0.04946 0.15408 0.00000
C189 C 0.81081 0.04576 0.19063 0.00000
C190 C 0.80261 0.09439 0.21903 0.00000
C191 C 0.64859 0.03431 0.11094 0.00000
C192 C 0.57466 0.02556 0.11305 0.00000
C193 C 0.54617 0.96513 0.12039 0.00000
C194 C 0.69421 0.98030 0.11869 0.00000
C195 C 0.66332 0.92060 0.12808 0.00000
C196 C 0.59010 0.91310 0.12784 0.00000
C197 C 0.72919 0.10339 0.14633 0.00000
C198 C 0.72138 0.15125 0.17551 0.00000
C199 C 0.75829 0.14664 0.21154 0.00000
H200 H 0.57614 0.88806 0.66367 0.00000
H201 H 0.55441 0.95894 0.72085 0.00000
H202 H 0.75454 0.10623 0.56158 0.00000
H203 H 0.67819 0.10482 0.50425 0.00000
C204 C 0.68799 0.90021 0.60526 0.00000
C205 C 0.76710 0.88436 0.60946 0.00000
C206 C 0.79599 0.82252 0.60762 0.00000
C207 C 0.86832 0.81350 0.61326 0.00000
C208 C 0.77526 0.00323 0.62003 0.00000
C209 C 0.81235 0.93776 0.61707 0.00000
C210 C 0.88503 0.92763 0.62243 0.00000
C211 C 0.91258 0.86574 0.62059 0.00000
H212 H 0.59848 0.92176 0.53512 0.00000
H213 H 0.60033 0.01279 0.49105 0.00000
H214 H 0.73347 0.07442 0.69011 0.00000
H215 H 0.63246 0.05139 0.73397 0.00000
H216 H 0.76329 0.78118 0.60227 0.00000
H217 H 0.88975 0.76565 0.61231 0.00000
H218 H 0.92054 0.96679 0.62838 0.00000
H219 H 0.96838 0.85845 0.62532 0.00000
C220 C 0.67084 0.93809 0.64396 0.00000
C221 C 0.61263 0.92678 0.66920 0.00000
C222 C 0.59967 0.96748 0.70163 0.00000
C223 C 0.73171 0.00790 0.58065 0.00000
C224 C 0.72673 0.06240 0.55583 0.00000
C225 C 0.68120 0.06281 0.52316 0.00000
C226 C 0.68602 0.95393 0.57291 0.00000
C227 C 0.63798 0.95751 0.54078 0.00000
C228 C 0.63721 0.01082 0.51570 0.00000
C229 C 0.71647 0.99199 0.65167 0.00000
C230 C 0.70187 0.03245 0.68422 0.00000
C231 C 0.64387 0.01983 0.70907 0.00000
H232 H 0.04855 0.43930 0.91554 0.00000
H233 H 0.00463 0.54929 0.92147 0.00000
H234 H 0.30901 0.51771 0.79248 0.00000
H235 H 0.27259 0.44797 0.73916 0.00000
C236 C 0.18948 0.40091 0.89271 0.00000
C237 C 0.25795 0.40279 0.91743 0.00000
C238 C 0.27644 0.35798 0.94688 0.00000
C239 C 0.33879 0.36566 0.96848 0.00000
C240 C 0.27723 0.50380 0.87803 0.00000
C241 C 0.30347 0.45608 0.90979 0.00000
C242 C 0.36613 0.46268 0.93173 0.00000
C243 C 0.38338 0.41768 0.96093 0.00000
H244 H 0.15209 0.33349 0.81880 0.00000
H245 H 0.19430 0.35607 0.75229 0.00000
H246 H 0.20695 0.62506 0.88869 0.00000
H247 H 0.08321 0.64144 0.90815 0.00000
H248 H 0.24304 0.31757 0.95361 0.00000
H249 H 0.35195 0.33137 0.99141 0.00000
H250 H 0.40145 0.50242 0.92683 0.00000
H251 H 0.43119 0.42375 0.97799 0.00000
C252 C 0.15595 0.46751 0.90034 0.00000
C253 C 0.08497 0.47838 0.91073 0.00000
C254 C 0.05954 0.54106 0.91377 0.00000
C255 C 0.26133 0.46118 0.84085 0.00000
C256 C 0.28000 0.47560 0.80091 0.00000
C257 C 0.25755 0.43653 0.76964 0.00000
C258 C 0.21538 0.40728 0.84855 0.00000
C259 C 0.19077 0.37085 0.81587 0.00000
C260 C 0.21332 0.38461 0.77705 0.00000
C261 C 0.20185 0.52132 0.89264 0.00000
C262 C 0.17479 0.58374 0.89553 0.00000
C263 C 0.10404 0.59326 0.90623 0.00000
H264 H 0.78661 0.59381 0.67533 0.00000
H265 H 0.90238 0.58434 0.70740 0.00000
H266 H 0.87260 0.40529 0.52390 0.00000
H267 H 0.84976 0.48345 0.47272 0.00000
C268 C 0.72518 0.50477 0.61947 0.00000
C269 C 0.69171 0.43880 0.62757 0.00000
C270 C 0.62330 0.42898 0.64281 0.00000
C271 C 0.59927 0.36698 0.65034 0.00000
C272 C 0.81120 0.40076 0.60460 0.00000
C273 C 0.73627 0.38489 0.61982 0.00000
C274 C 0.71087 0.32291 0.62741 0.00000
C275 C 0.64277 0.31427 0.64266 0.00000
H276 H 0.71851 0.59135 0.55050 0.00000
H277 H 0.77289 0.57627 0.48600 0.00000
H278 H 0.94216 0.40618 0.64819 0.00000
H279 H 0.97955 0.49127 0.69393 0.00000
H280 H 0.58858 0.46857 0.64929 0.00000
H281 H 0.54693 0.36010 0.66255 0.00000
H282 H 0.74319 0.28127 0.62206 0.00000
H283 H 0.62420 0.26645 0.64890 0.00000
C284 C 0.79452 0.50294 0.64393 0.00000
C285 C 0.81793 0.55150 0.66972 0.00000
C286 C 0.88424 0.54657 0.68778 0.00000
C287 C 0.79852 0.44533 0.56791 0.00000
C288 C 0.83388 0.44131 0.53070 0.00000
C289 C 0.82258 0.48732 0.50121 0.00000
C290 C 0.75345 0.49979 0.57570 0.00000
C291 C 0.74626 0.54711 0.54583 0.00000
C292 C 0.77915 0.53976 0.50871 0.00000
C293 C 0.83953 0.44855 0.63613 0.00000
C294 C 0.90613 0.44509 0.65436 0.00000
C295 C 0.92794 0.49386 0.68016 0.00000
H296 H 0.27740 0.91308 0.31767 0.00000
H297 H 0.38788 0.92746 0.28016 0.00000
H298 H 0.38450 0.08457 0.47216 0.00000
H299 H 0.36984 0.00010 0.52064 0.00000
C300 C 0.22401 0.99479 0.38044 0.00000
C301 C 0.18908 0.06116 0.37715 0.00000
C302 C 0.11861 0.07198 0.36605 0.00000
C303 C 0.09318 0.13443 0.36265 0.00000
C304 C 0.31129 0.09773 0.39542 0.00000
C305 C 0.23430 0.11452 0.38496 0.00000
C306 C 0.20750 0.17693 0.38157 0.00000
C307 C 0.13735 0.18658 0.37039 0.00000
H308 H 0.22815 0.90042 0.44537 0.00000
H309 H 0.29185 0.90860 0.50727 0.00000
H310 H 0.43527 0.09875 0.34499 0.00000
H311 H 0.46620 0.01955 0.29371 0.00000
H312 H 0.08330 0.03287 0.35963 0.00000
H313 H 0.03919 0.14214 0.35358 0.00000
H314 H 0.24024 0.21819 0.38708 0.00000
H315 H 0.11764 0.23480 0.36734 0.00000
C316 C 0.28942 0.00010 0.35257 0.00000
C317 C 0.30918 0.95497 0.32352 0.00000
C318 C 0.37250 0.96268 0.30232 0.00000
C319 C 0.30440 0.04892 0.43051 0.00000
C320 C 0.34513 0.04902 0.46580 0.00000
C321 C 0.33854 0.99990 0.49359 0.00000
C322 C 0.25866 0.99502 0.42266 0.00000
C323 C 0.25623 0.94430 0.45056 0.00000
C324 C 0.29448 0.94770 0.48604 0.00000
C325 C 0.33509 0.05400 0.36043 0.00000
C326 C 0.39870 0.06027 0.33898 0.00000
C327 C 0.41686 0.01483 0.30999 0.00000
H328 H 0.74102 0.69828 0.05999 0.00000
H329 H 0.61959 0.69515 0.03484 0.00000
H330 H 0.67795 0.49222 0.20595 0.00000
H331 H 0.71271 0.56300 0.25910 0.00000
C332 C 0.80978 0.60114 0.10718 0.00000
C333 C 0.83947 0.53584 0.09386 0.00000
C334 C 0.90434 0.52679 0.07410 0.00000
C335 C 0.92488 0.46556 0.06212 0.00000
C336 C 0.72375 0.49713 0.12204 0.00000
C337 C 0.79491 0.48192 0.10160 0.00000
C338 C 0.81680 0.42069 0.08947 0.00000
C339 C 0.88139 0.41282 0.06978 0.00000
H340 H 0.83206 0.67828 0.17935 0.00000
H341 H 0.78958 0.65583 0.24583 0.00000
H342 H 0.58553 0.51062 0.08713 0.00000
H343 H 0.54245 0.60207 0.04830 0.00000
H344 H 0.93889 0.56646 0.06750 0.00000
H345 H 0.97442 0.45934 0.04648 0.00000
H346 H 0.78436 0.37909 0.09470 0.00000
H347 H 0.89719 0.36565 0.06011 0.00000
C348 C 0.73618 0.60378 0.08710 0.00000
C349 C 0.70960 0.65596 0.06538 0.00000
C350 C 0.64012 0.65462 0.05130 0.00000
C351 C 0.74463 0.53651 0.15980 0.00000
C352 C 0.71632 0.52829 0.19862 0.00000
C353 C 0.73453 0.57008 0.22941 0.00000
C354 C 0.78971 0.59097 0.15202 0.00000
C355 C 0.80394 0.63409 0.18350 0.00000
C356 C 0.77796 0.62252 0.22191 0.00000
C357 C 0.69118 0.54939 0.09489 0.00000
C358 C 0.62142 0.54953 0.08074 0.00000
C359 C 0.59643 0.60190 0.05892 0.00000
H360 H 0.23381 0.38209 0.42123 0.00000
H361 H 0.13163 0.37179 0.46611 0.00000
H362 H 0.10062 0.62904 0.32353 0.00000
H363 H 0.10395 0.57883 0.25879 0.00000
C364 C 0.27629 0.49548 0.37818 0.00000
C365 C 0.31304 0.55615 0.39399 0.00000
C366 C 0.38549 0.56118 0.40229 0.00000
C367 C 0.41273 0.61794 0.41791 0.00000
C368 C 0.18872 0.59846 0.39296 0.00000
C369 C 0.26766 0.60955 0.40160 0.00000
C370 C 0.29626 0.66631 0.41712 0.00000
C371 C 0.36839 0.67020 0.42525 0.00000
H372 H 0.25748 0.44482 0.29708 0.00000
H373 H 0.18220 0.48693 0.24560 0.00000
H374 H 0.07537 0.56800 0.44763 0.00000
H375 H 0.05303 0.46400 0.47920 0.00000
H376 H 0.42105 0.52167 0.39722 0.00000
H377 H 0.46835 0.62092 0.42467 0.00000
H378 H 0.26349 0.70735 0.42335 0.00000
H379 H 0.38959 0.71378 0.43770 0.00000
C380 C 0.21683 0.48321 0.40928 0.00000
C381 C 0.20194 0.42392 0.42724 0.00000
C382 C 0.14330 0.41770 0.45256 0.00000
C383 C 0.18768 0.57330 0.34905 0.00000
C384 C 0.14027 0.59296 0.31895 0.00000
C385 C 0.14035 0.56303 0.28168 0.00000
C386 C 0.23357 0.51938 0.34131 0.00000
C387 C 0.22946 0.48821 0.30391 0.00000
C388 C 0.18456 0.51111 0.27422 0.00000
C389 C 0.17101 0.53706 0.41699 0.00000
C390 C 0.11210 0.52935 0.44223 0.00000
C391 C 0.09879 0.46992 0.45998 0.00000
H392 H 0.29329 0.12511 0.88917 0.00000
H393 H 0.41652 0.14139 0.90905 0.00000
H394 H 0.35049 0.83367 0.81907 0.00000
H395 H 0.31024 0.85625 0.75240 0.00000
C396 C 0.22343 0.00381 0.87781 0.00000
C397 C 0.19626 0.95610 0.90946 0.00000
C398 C 0.13310 0.96285 0.93126 0.00000
C399 C 0.11488 0.91773 0.96030 0.00000
C400 C 0.31073 0.90091 0.89287 0.00000
C401 C 0.24147 0.90273 0.91723 0.00000
C402 C 0.22192 0.85772 0.94643 0.00000
C403 C 0.15900 0.86546 0.96782 0.00000
H404 H 0.19411 0.01774 0.79215 0.00000
H405 H 0.23223 0.94809 0.73897 0.00000
H406 H 0.45106 0.93921 0.91604 0.00000
H407 H 0.49478 0.04918 0.92238 0.00000
H408 H 0.09813 0.00278 0.92638 0.00000
H409 H 0.06667 0.92390 0.97723 0.00000
H410 H 0.25492 0.81710 0.95314 0.00000
H411 H 0.14502 0.83103 0.99058 0.00000
C412 C 0.29836 0.02131 0.89280 0.00000
C413 C 0.32528 0.08374 0.89597 0.00000
C414 C 0.39575 0.09321 0.90694 0.00000
C415 C 0.28619 0.90733 0.84858 0.00000
C416 C 0.31185 0.87098 0.81600 0.00000
C417 C 0.29044 0.88476 0.77709 0.00000
C418 C 0.24045 0.96121 0.84070 0.00000
C419 C 0.22293 0.97565 0.80069 0.00000
C420 C 0.24636 0.93664 0.76950 0.00000
C421 C 0.34403 0.96749 0.90065 0.00000
C422 C 0.41475 0.97833 0.91124 0.00000
C423 C 0.44008 0.04099 0.91449 0.00000
H424 H 0.50543 0.65545 0.04914 0.00000
H425 H 0.60785 0.65170 0.09370 0.00000
H426 H 0.62964 0.43143 0.92811 0.00000
H427 H 0.62827 0.49690 0.86892 0.00000
C428 C 0.45888 0.55518 0.99612 0.00000
C429 C 0.41990 0.49248 0.00625 0.00000
C430 C 0.34728 0.48762 0.01452 0.00000
C431 C 0.31794 0.42855 0.02476 0.00000
C432 C 0.54259 0.44729 0.00010 0.00000
C433 C 0.46327 0.43655 0.00837 0.00000
C434 C 0.43257 0.37754 0.01852 0.00000
C435 C 0.36032 0.37383 0.02672 0.00000
H436 H 0.47968 0.62444 0.92065 0.00000
H437 H 0.55347 0.59319 0.86520 0.00000
H438 H 0.65690 0.46074 0.05637 0.00000
H439 H 0.68300 0.55512 0.09729 0.00000
H440 H 0.31321 0.52892 0.01352 0.00000
H441 H 0.26223 0.42558 0.03157 0.00000
H442 H 0.46381 0.33452 0.02053 0.00000
H443 H 0.33751 0.32837 0.03504 0.00000
C444 C 0.51870 0.55799 0.02758 0.00000
C445 C 0.53573 0.61173 0.05086 0.00000
C446 C 0.59452 0.60999 0.07604 0.00000
C447 C 0.54463 0.48282 0.95927 0.00000
C448 C 0.59135 0.46935 0.92730 0.00000
C449 C 0.59243 0.50800 0.89331 0.00000
C450 C 0.50077 0.53932 0.95709 0.00000
C451 C 0.50608 0.57910 0.92306 0.00000
C452 C 0.55017 0.56240 0.89121 0.00000
C453 C 0.56251 0.50157 0.02974 0.00000
C454 C 0.62162 0.50131 0.05499 0.00000
C455 C 0.63708 0.55530 0.07807 0.00000
H456 H 0.48906 0.65683 0.45304 0.00000
H457 H 0.38313 0.65504 0.41113 0.00000
H458 H 0.37530 0.42632 0.57256 0.00000
H459 H 0.38130 0.48872 0.63293 0.00000
C460 C 0.54011 0.55404 0.50273 0.00000
C461 C 0.57839 0.49202 0.49035 0.00000
C462 C 0.65029 0.48782 0.48012 0.00000
C463 C 0.67892 0.42939 0.46795 0.00000
C464 C 0.45639 0.44616 0.49858 0.00000
C465 C 0.53502 0.43609 0.48824 0.00000
C466 C 0.56502 0.37772 0.47613 0.00000
C467 C 0.63655 0.37467 0.46599 0.00000
H468 H 0.52527 0.61933 0.58001 0.00000
H469 H 0.45611 0.58501 0.63664 0.00000
H470 H 0.33761 0.46211 0.44582 0.00000
H471 H 0.30799 0.55845 0.40755 0.00000
H472 H 0.68431 0.52915 0.48107 0.00000
H473 H 0.73404 0.42695 0.45965 0.00000
H474 H 0.53375 0.33473 0.47406 0.00000
H475 H 0.65878 0.32973 0.45619 0.00000
C476 C 0.47778 0.55827 0.47294 0.00000
C477 C 0.45876 0.61312 0.45123 0.00000
C478 C 0.39798 0.61249 0.42758 0.00000
C479 C 0.45759 0.47956 0.54029 0.00000
C480 C 0.41354 0.46430 0.57314 0.00000
C481 C 0.41511 0.50119 0.60787 0.00000
C482 C 0.50146 0.53605 0.54246 0.00000
C483 C 0.49881 0.57405 0.57737 0.00000
C484 C 0.45737 0.55558 0.60997 0.00000
C485 C 0.43398 0.50185 0.47078 0.00000
C486 C 0.37288 0.50270 0.44711 0.00000
C487 C 0.35542 0.55779 0.42555 0.00000
H488 H 0.86552 0.94887 0.07132 0.00000
H489 H 0.85804 0.03332 0.12206 0.00000
H490 H 0.99498 0.14127 0.93211 0.00000
H491 H 0.90177 0.12293 0.88477 0.00000
C492 C 0.95611 0.94808 0.00170 0.00000
C493 C 0.03618 0.93544 0.99895 0.00000
C494 C 0.06777 0.87467 0.00010 0.00000
C495 C 0.14121 0.86897 0.99887 0.00000
C496 C 0.04027 0.05563 0.99665 0.00000
C497 C 0.07980 0.99118 0.99629 0.00000
C498 C 0.15357 0.98432 0.99479 0.00000
C499 C 0.18385 0.92347 0.99617 0.00000
H500 H 0.84447 0.94870 0.94109 0.00000
H501 H 0.82668 0.02686 0.88926 0.00000
H502 H 0.01717 0.14332 0.06199 0.00000
H503 H 0.93326 0.12979 0.11743 0.00000
H504 H 0.03647 0.83172 0.00252 0.00000
H505 H 0.16490 0.82205 0.00010 0.00000
H506 H 0.18797 0.02535 0.99295 0.00000
H507 H 0.24065 0.91886 0.99556 0.00000
C508 C 0.94926 0.99523 0.03729 0.00000
C509 C 0.90078 0.98937 0.06901 0.00000
C510 C 0.89588 0.03774 0.09781 0.00000
C511 C 0.98464 0.04881 0.96265 0.00000
C512 C 0.96850 0.09587 0.93378 0.00000
C513 C 0.91332 0.08657 0.90691 0.00000
C514 C 0.94058 0.99247 0.96529 0.00000
C515 C 0.88292 0.98638 0.93889 0.00000
C516 C 0.87090 0.03230 0.90944 0.00000
C517 C 0.99326 0.05150 0.03464 0.00000
C518 C 0.98680 0.09963 0.06375 0.00000
C519 C 0.93848 0.09237 0.09520 0.00000
H520 H 0.99451 0.84378 0.54940 0.00000
H521 H 0.89231 0.84697 0.59467 0.00000
H522 H 0.86915 0.06852 0.42992 0.00000
H523 H 0.87038 0.00354 0.37052 0.00000
C524 C 0.04055 0.94457 0.49639 0.00000
C525 C 0.07943 0.00727 0.50645 0.00000
C526 C 0.15208 0.01222 0.51424 0.00000
C527 C 0.18132 0.07127 0.52447 0.00000
C528 C 0.95659 0.05226 0.50146 0.00000
C529 C 0.03593 0.06310 0.50904 0.00000
C530 C 0.06653 0.12209 0.51917 0.00000
C531 C 0.13881 0.12588 0.52689 0.00000
H532 H 0.01954 0.87589 0.42084 0.00000
H533 H 0.94540 0.90743 0.36599 0.00000
H534 H 0.84261 0.03812 0.55827 0.00000
H535 H 0.81694 0.94336 0.59907 0.00000
H536 H 0.18624 0.97099 0.51289 0.00000
H537 H 0.23706 0.07429 0.53092 0.00000
H538 H 0.03520 0.16502 0.52153 0.00000
H539 H 0.16156 0.17132 0.53520 0.00000
C540 C 0.98089 0.94139 0.52824 0.00000
C541 C 0.96412 0.88742 0.55146 0.00000
C542 C 0.90545 0.88884 0.57705 0.00000
C543 C 0.95444 0.01706 0.46035 0.00000
C544 C 0.90753 0.03070 0.42874 0.00000
C545 C 0.90637 0.99231 0.39463 0.00000
C546 C 0.99843 0.96067 0.45769 0.00000
C547 C 0.99304 0.92115 0.42358 0.00000
C548 C 0.94875 0.93802 0.39207 0.00000
C549 C 0.93696 0.99771 0.53088 0.00000
C550 C 0.87798 0.99764 0.55652 0.00000
C551 C 0.86276 0.94343 0.57954 0.00000
H552 H 0.34354 0.37864 0.28353 0.00000
H553 H 0.30730 0.44614 0.22728 0.00000
H554 H 0.51717 0.17330 0.16912 0.00000
H555 H 0.45007 0.08101 0.18953 0.00000
C556 C 0.46231 0.29215 0.28505 0.00000
C557 C 0.54160 0.30755 0.28881 0.00000
C558 C 0.57589 0.32312 0.32467 0.00000
C559 C 0.64765 0.33850 0.32435 0.00000
C560 C 0.53787 0.29220 0.21428 0.00000
C561 C 0.58078 0.30751 0.25213 0.00000
C562 C 0.65302 0.32279 0.25254 0.00000
C563 C 0.68599 0.33829 0.28851 0.00000
H564 H 0.38208 0.17319 0.29583 0.00000
H565 H 0.38267 0.08096 0.25274 0.00000
H566 H 0.47974 0.37828 0.15562 0.00000
H567 H 0.37485 0.44597 0.16382 0.00000
H568 H 0.54779 0.32413 0.35278 0.00000
H569 H 0.67319 0.35122 0.35203 0.00000
H570 H 0.68402 0.32346 0.22541 0.00000
H571 H 0.74132 0.35082 0.28836 0.00000
C572 C 0.43622 0.34042 0.25317 0.00000
C573 C 0.37562 0.37884 0.25673 0.00000
C574 C 0.35438 0.41697 0.22456 0.00000
C575 C 0.50012 0.22781 0.22439 0.00000
C576 C 0.49420 0.17464 0.19854 0.00000
C577 C 0.45384 0.12162 0.20956 0.00000
C578 C 0.46057 0.22778 0.26147 0.00000
C579 C 0.41738 0.17458 0.27059 0.00000
C580 C 0.41577 0.12158 0.24527 0.00000
C581 C 0.47572 0.34041 0.21615 0.00000
C582 C 0.45286 0.37868 0.18419 0.00000
C583 C 0.39263 0.41687 0.18862 0.00000
H584 H 0.52331 0.62181 0.84460 0.00000
H585 H 0.62861 0.55465 0.83643 0.00000
H586 H 0.62010 0.82696 0.70408 0.00000
H587 H 0.61919 0.91941 0.74697 0.00000
C588 C 0.46492 0.70786 0.78593 0.00000
C589 C 0.42197 0.69215 0.74816 0.00000
C590 C 0.34986 0.67632 0.74788 0.00000
C591 C 0.31682 0.66068 0.71195 0.00000
C592 C 0.54027 0.70781 0.71509 0.00000
C593 C 0.46100 0.69219 0.71143 0.00000
C594 C 0.42660 0.67665 0.67561 0.00000
C595 C 0.35495 0.66089 0.67603 0.00000
H596 H 0.48511 0.82707 0.83083 0.00000
H597 H 0.55185 0.91946 0.81020 0.00000
H598 H 0.65966 0.62216 0.71674 0.00000
H599 H 0.69626 0.55483 0.77301 0.00000
H600 H 0.31905 0.67530 0.77506 0.00000
H601 H 0.26160 0.64776 0.71220 0.00000
H602 H 0.45454 0.67597 0.64744 0.00000
H603 H 0.32932 0.64815 0.64838 0.00000
C604 C 0.52724 0.65981 0.78409 0.00000
C605 C 0.55023 0.62159 0.81604 0.00000
C606 C 0.61068 0.58367 0.81163 0.00000
C607 C 0.54184 0.77230 0.73856 0.00000
C608 C 0.58483 0.82558 0.72932 0.00000
C609 C 0.58625 0.87871 0.75454 0.00000
C610 C 0.50236 0.77232 0.77566 0.00000
C611 C 0.50807 0.82564 0.80140 0.00000
C612 C 0.54821 0.87875 0.79026 0.00000
C613 C 0.56667 0.65981 0.74704 0.00000
C614 C 0.62755 0.62175 0.74353 0.00000
C615 C 0.64899 0.58377 0.77571 0.00000
H616 H 0.02197 0.28879 0.65524 0.00000
H617 H 0.12689 0.35642 0.66288 0.00000
H618 H 0.11892 0.08505 0.79602 0.00000
H619 H 0.11871 0.99228 0.75340 0.00000
C620 C 0.96364 0.20293 0.71434 0.00000
C621 C 0.92038 0.21874 0.75221 0.00000
C622 C 0.84820 0.23428 0.75268 0.00000
C623 C 0.81486 0.25004 0.78867 0.00000
C624 C 0.03856 0.20379 0.78494 0.00000
C625 C 0.95920 0.21911 0.78881 0.00000
C626 C 0.92450 0.23478 0.82470 0.00000
C627 C 0.85277 0.25025 0.82446 0.00000
H628 H 0.98469 0.08348 0.66972 0.00000
H629 H 0.05176 0.99150 0.69038 0.00000
H630 H 0.15754 0.28990 0.78266 0.00000
H631 H 0.19415 0.35698 0.72608 0.00000
H632 H 0.81754 0.23497 0.72559 0.00000
H633 H 0.75958 0.26274 0.78857 0.00000
H634 H 0.95226 0.23577 0.85278 0.00000
H635 H 0.82692 0.26308 0.85216 0.00000
C636 C 0.02572 0.25124 0.71585 0.00000
C637 C 0.04872 0.28932 0.68371 0.00000
C638 C 0.10895 0.32752 0.68782 0.00000
C639 C 0.04059 0.13914 0.76164 0.00000
C640 C 0.08379 0.08610 0.77089 0.00000
C641 C 0.08563 0.03279 0.74582 0.00000
C642 C 0.00133 0.13869 0.72467 0.00000
C643 C 0.00747 0.08521 0.69907 0.00000
C644 C 0.04780 0.03235 0.71022 0.00000
C645 C 0.06492 0.25166 0.75277 0.00000
C646 C 0.12559 0.29000 0.75597 0.00000
C647 C 0.14705 0.32783 0.72362 0.00000
H648 H 0.02274 0.87944 0.15574 0.00000
H649 H 0.12829 0.94616 0.16378 0.00000
H650 H 0.11780 0.67284 0.29531 0.00000
H651 H 0.11674 0.58073 0.25214 0.00000
C652 C 0.96363 0.79313 0.21433 0.00000
C653 C 0.92051 0.80870 0.25230 0.00000
C654 C 0.84847 0.82479 0.25286 0.00000
C655 C 0.81528 0.84025 0.28894 0.00000
C656 C 0.03854 0.79236 0.28493 0.00000
C657 C 0.95932 0.80822 0.28889 0.00000
C658 C 0.92478 0.82360 0.32488 0.00000
C659 C 0.85319 0.83962 0.32474 0.00000
H660 H 0.98357 0.67421 0.16901 0.00000
H661 H 0.04978 0.58142 0.18912 0.00000
H662 H 0.15832 0.87759 0.28316 0.00000
H663 H 0.19555 0.94524 0.22698 0.00000
H664 H 0.81783 0.82613 0.22578 0.00000
H665 H 0.76012 0.85337 0.28892 0.00000
H666 H 0.95254 0.82396 0.35296 0.00000
H667 H 0.82745 0.85223 0.35251 0.00000
C668 C 0.02614 0.84095 0.21613 0.00000
C669 C 0.04950 0.87933 0.18421 0.00000
C670 C 0.11008 0.91701 0.18855 0.00000
C671 C 0.03998 0.72805 0.26126 0.00000
C672 C 0.08268 0.67454 0.27019 0.00000
C673 C 0.08403 0.62160 0.24481 0.00000
C674 C 0.00010 0.72846 0.22429 0.00000
C675 C 0.00636 0.67532 0.19836 0.00000
C676 C 0.04620 0.62199 0.20921 0.00000
C677 C 0.06535 0.84051 0.25305 0.00000
C678 C 0.12637 0.87833 0.25648 0.00000
C679 C 0.14818 0.91649 0.22435 0.00000
H680 H 0.52974 0.16459 0.05292 0.00000
H681 H 0.56210 0.07759 0.00718 0.00000
H682 H 0.32293 0.30818 0.92170 0.00000
H683 H 0.38552 0.40839 0.92237 0.00000
C684 C 0.40523 0.24385 0.04838 0.00000
C685 C 0.32830 0.22733 0.05956 0.00000
C686 C 0.30119 0.22581 0.09872 0.00000
C687 C 0.23110 0.20794 0.10549 0.00000
C688 C 0.31894 0.21138 0.98526 0.00000
C689 C 0.28356 0.21057 0.02684 0.00000
C690 C 0.21309 0.19308 0.03432 0.00000
C691 C 0.18731 0.19171 0.07348 0.00000
H692 H 0.47722 0.36633 0.03473 0.00000
H693 H 0.46250 0.43740 0.97876 0.00000
H694 H 0.37411 0.10634 0.93873 0.00000
H695 H 0.48491 0.04869 0.95053 0.00000
H696 H 0.33364 0.23763 0.12407 0.00000
H697 H 0.21115 0.20611 0.13576 0.00000
H698 H 0.17805 0.17992 0.01035 0.00000
H699 H 0.13333 0.17732 0.07890 0.00000
C700 C 0.42987 0.18511 0.02369 0.00000
C701 C 0.49364 0.15197 0.02926 0.00000
C702 C 0.51261 0.10270 0.00300 0.00000
C703 C 0.35295 0.27922 0.98235 0.00000
C704 C 0.35053 0.32002 0.94871 0.00000
C705 C 0.38817 0.37738 0.94830 0.00000
C706 C 0.39812 0.29622 0.01542 0.00000
C707 C 0.43827 0.35308 0.01298 0.00000
C708 C 0.43165 0.39377 0.98015 0.00000
C709 C 0.38475 0.16815 0.99066 0.00000
C710 C 0.40538 0.11890 0.96451 0.00000
C711 C 0.46890 0.08633 0.97092 0.00000
H712 H 0.18284 0.72723 0.48937 0.00000
H713 H 0.14283 0.65154 0.54072 0.00000
H714 H 0.41733 0.86522 0.60735 0.00000
H715 H 0.36844 0.97112 0.60181 0.00000
C716 C 0.31719 0.79234 0.48677 0.00000
C717 C 0.39043 0.76582 0.47520 0.00000
C718 C 0.41403 0.75558 0.43584 0.00000
C719 C 0.48067 0.72912 0.42886 0.00000
C720 C 0.40347 0.75985 0.54989 0.00000
C721 C 0.43518 0.74905 0.50791 0.00000
C722 C 0.50218 0.72281 0.50021 0.00000
C723 C 0.52449 0.71288 0.46086 0.00000
H724 H 0.26305 0.92338 0.49431 0.00000
H725 H 0.29147 0.00010 0.54542 0.00000
H726 H 0.33852 0.66899 0.60354 0.00000
H727 H 0.22005 0.62265 0.59736 0.00000
H728 H 0.38141 0.76718 0.41051 0.00000
H729 H 0.49783 0.72068 0.39849 0.00000
H730 H 0.53709 0.70941 0.52418 0.00000
H731 H 0.57570 0.69185 0.45532 0.00000
C732 C 0.28693 0.74064 0.51533 0.00000
C733 C 0.21884 0.71419 0.51299 0.00000
C734 C 0.19558 0.67145 0.54244 0.00000
C735 C 0.37893 0.83110 0.54933 0.00000
C736 C 0.38939 0.87605 0.58029 0.00000
C737 C 0.35967 0.93699 0.57794 0.00000
C738 C 0.33376 0.84811 0.51626 0.00000
C739 C 0.30165 0.90912 0.51602 0.00000
C740 C 0.31618 0.95338 0.54609 0.00000
C741 C 0.33205 0.72368 0.54836 0.00000
C742 C 0.30713 0.68112 0.57772 0.00000
C743 C 0.23930 0.65509 0.57451 0.00000
H744 H 0.01045 0.35473 0.93338 0.00000
H745 H 0.02690 0.45639 0.96874 0.00000
H746 H 0.84942 0.21500 0.08605 0.00000
H747 H 0.93238 0.12827 0.09181 0.00000
C748 C 0.90605 0.25815 0.95124 0.00000
C749 C 0.82626 0.25828 0.94234 0.00000
C750 C 0.79628 0.24498 0.90491 0.00000
C751 C 0.72323 0.24872 0.89991 0.00000
C752 C 0.81950 0.29153 0.01451 0.00000
C753 C 0.78139 0.27551 0.97515 0.00000
C754 C 0.70800 0.27864 0.96950 0.00000
C755 C 0.67936 0.26541 0.93201 0.00000
H756 H 0.00419 0.15518 0.97277 0.00000
H757 H 0.00960 0.09844 0.03530 0.00000
H758 H 0.85444 0.41472 0.04786 0.00000
H759 H 0.94952 0.48615 0.02553 0.00000
H760 H 0.82862 0.23238 0.87949 0.00000
H761 H 0.70090 0.23923 0.87086 0.00000
H762 H 0.67273 0.29173 0.99355 0.00000
H763 H 0.62295 0.26885 0.92789 0.00000
C764 C 0.91940 0.32565 0.96888 0.00000
C765 C 0.97423 0.36704 0.95724 0.00000
C766 C 0.98421 0.42482 0.97758 0.00000
C767 C 0.86775 0.23230 0.02213 0.00000
C768 C 0.87687 0.20113 0.05923 0.00000
C769 C 0.92620 0.15201 0.06323 0.00000
C770 C 0.91306 0.21481 0.98899 0.00000
C771 C 0.96489 0.16712 0.99482 0.00000
C772 C 0.96982 0.13515 0.03130 0.00000
C773 C 0.87415 0.34309 0.00199 0.00000
C774 C 0.88575 0.40110 0.02214 0.00000
C775 C 0.94039 0.44168 0.00974 0.00000
H776 H 0.15250 0.15597 0.59809 0.00000
H777 H 0.26495 0.10044 0.58681 0.00000
H778 H 0.25138 0.41615 0.50014 0.00000
H779 H 0.23401 0.48814 0.55548 0.00000
C780 C 0.09584 0.25932 0.55086 0.00000
C781 C 0.06119 0.25687 0.50929 0.00000
C782 C 0.99138 0.23756 0.50194 0.00000
C783 C 0.96622 0.23501 0.46280 0.00000
C784 C 0.18238 0.29208 0.48746 0.00000
C785 C 0.10602 0.27392 0.47643 0.00000
C786 C 0.07950 0.27134 0.43731 0.00000
C787 C 0.01001 0.25184 0.43069 0.00000
H788 H 0.09636 0.35755 0.61356 0.00000
H789 H 0.15667 0.45890 0.61206 0.00000
H790 H 0.30901 0.21555 0.48375 0.00000
H791 H 0.34260 0.13000 0.53010 0.00000
H792 H 0.95638 0.22388 0.52599 0.00000
H793 H 0.91276 0.21926 0.45749 0.00000
H794 H 0.11197 0.28362 0.41187 0.00000
H795 H 0.99053 0.24919 0.40044 0.00000
C796 C 0.16273 0.21723 0.54580 0.00000
C797 C 0.18399 0.16879 0.57227 0.00000
C798 C 0.24843 0.13741 0.56616 0.00000
C799 C 0.17354 0.34501 0.51999 0.00000
C800 C 0.21234 0.40265 0.52197 0.00000
C801 C 0.20419 0.44391 0.55445 0.00000
C802 C 0.12819 0.32785 0.55318 0.00000
C803 C 0.12419 0.36933 0.58647 0.00000
C804 C 0.16050 0.42739 0.58641 0.00000
C805 C 0.20800 0.23439 0.51265 0.00000
C806 C 0.27274 0.20254 0.50742 0.00000
C807 C 0.29241 0.15414 0.53404 0.00000
H808 H 0.47858 0.15405 0.44047 0.00000
H809 H 0.45284 0.05967 0.48158 0.00000
H810 H 0.66278 0.29818 0.58188 0.00000
H811 H 0.59029 0.39271 0.58432 0.00000
C812 C 0.59414 0.24237 0.45104 0.00000
C813 C 0.67297 0.23353 0.44076 0.00000
C814 C 0.70217 0.23879 0.40221 0.00000
C815 C 0.77410 0.22753 0.39613 0.00000
C816 C 0.67999 0.20977 0.51434 0.00000
C817 C 0.71748 0.21671 0.47357 0.00000
C818 C 0.78978 0.20593 0.46680 0.00000
C819 C 0.81765 0.21124 0.42823 0.00000
H820 H 0.50927 0.35658 0.46855 0.00000
H821 H 0.51371 0.42183 0.52778 0.00000
H822 H 0.63336 0.09553 0.55497 0.00000
H823 H 0.52961 0.03063 0.53839 0.00000
H824 H 0.67001 0.25086 0.37678 0.00000
H825 H 0.79575 0.23088 0.36628 0.00000
H826 H 0.82473 0.19292 0.49084 0.00000
H827 H 0.87312 0.20197 0.42330 0.00000
C828 C 0.57432 0.17914 0.47258 0.00000
C829 C 0.51454 0.14169 0.46425 0.00000
C830 C 0.49930 0.08815 0.48788 0.00000
C831 C 0.63906 0.27405 0.51951 0.00000
C832 C 0.63553 0.31084 0.55490 0.00000
C833 C 0.59219 0.36471 0.55705 0.00000
C834 C 0.59412 0.29113 0.48636 0.00000
C835 C 0.54824 0.34405 0.49046 0.00000
C836 C 0.54893 0.38117 0.52511 0.00000
C837 C 0.61920 0.16211 0.50569 0.00000
C838 C 0.60232 0.10846 0.52917 0.00000
C839 C 0.54277 0.07170 0.52004 0.00000
H840 H 0.20190 0.81342 0.93116 0.00000
H841 H 0.15036 0.92080 0.93601 0.00000
H842 H 0.17661 0.75760 0.12537 0.00000
H843 H 0.30075 0.73871 0.13512 0.00000
C844 C 0.18359 0.71017 0.98753 0.00000
C845 C 0.11905 0.66644 0.99412 0.00000
C846 C 0.10116 0.61412 0.96983 0.00000
C847 C 0.03990 0.57910 0.97779 0.00000
C848 C 0.09687 0.74287 0.05086 0.00000
C849 C 0.07414 0.68335 0.02697 0.00000
C850 C 0.01297 0.64724 0.03457 0.00000
C851 C 0.99609 0.59554 0.00998 0.00000
H852 H 0.33176 0.69893 0.01201 0.00000
H853 H 0.37815 0.70944 0.07857 0.00000
H854 H 0.04574 0.87258 0.04574 0.00000
H855 H 0.07290 0.95015 0.99285 0.00000
H856 H 0.13352 0.60042 0.94464 0.00000
H857 H 0.02621 0.53952 0.95858 0.00000
H858 H 0.97784 0.65886 0.05898 0.00000
H859 H 0.94841 0.56869 0.01577 0.00000
C860 C 0.15089 0.77807 0.98521 0.00000
C861 C 0.16652 0.82390 0.95574 0.00000
C862 C 0.13775 0.88541 0.95861 0.00000
C863 C 0.17520 0.72892 0.06227 0.00000
C864 C 0.20580 0.73968 0.10012 0.00000
C865 C 0.27804 0.73062 0.10587 0.00000
C866 C 0.22060 0.71177 0.02909 0.00000
C867 C 0.29402 0.70632 0.03566 0.00000
C868 C 0.32177 0.71408 0.07392 0.00000
C869 C 0.10557 0.79518 0.01835 0.00000
C870 C 0.07793 0.85745 0.02070 0.00000
C871 C 0.09389 0.90203 0.99079 0.00000
H872 H 0.88232 0.61480 0.56603 0.00000
H873 H 0.99990 0.56696 0.55825 0.00000
H874 H 0.96229 0.87221 0.46005 0.00000
H875 H 0.93584 0.94755 0.51244 0.00000
C876 C 0.81892 0.70909 0.51439 0.00000
C877 C 0.78664 0.70029 0.47254 0.00000
C878 C 0.71917 0.67517 0.46501 0.00000
C879 C 0.69625 0.66720 0.42571 0.00000
C880 C 0.90528 0.74243 0.45103 0.00000
C881 C 0.83137 0.71764 0.43970 0.00000
C882 C 0.80708 0.70954 0.40040 0.00000
C883 C 0.73992 0.68432 0.39361 0.00000
H884 H 0.80759 0.81256 0.57340 0.00000
H885 H 0.85867 0.91778 0.56899 0.00000
H886 H 0.03846 0.67545 0.45174 0.00000
H887 H 0.07733 0.59705 0.50156 0.00000
H888 H 0.68437 0.66112 0.48906 0.00000
H889 H 0.64466 0.64704 0.42030 0.00000
H890 H 0.83956 0.72188 0.37498 0.00000
H891 H 0.72222 0.67748 0.36327 0.00000
C892 C 0.88956 0.67177 0.51174 0.00000
C893 C 0.91380 0.62758 0.54020 0.00000
C894 C 0.98110 0.60063 0.53607 0.00000
C895 C 0.89014 0.79738 0.48145 0.00000
C896 C 0.92354 0.85782 0.48183 0.00000
C897 C 0.91015 0.90121 0.51264 0.00000
C898 C 0.84489 0.77992 0.51463 0.00000
C899 C 0.83558 0.82390 0.54629 0.00000
C900 C 0.86655 0.88440 0.54458 0.00000
C901 C 0.93474 0.68924 0.47861 0.00000
C902 C 0.00234 0.66193 0.47538 0.00000
C903 C 0.02497 0.61767 0.50397 0.00000
H904 H 0.81277 0.72263 0.01328 0.00000
H905 H 0.85028 0.64209 0.96428 0.00000
H906 H 0.59007 0.86320 0.88933 0.00000
H907 H 0.64448 0.96710 0.89287 0.00000
C908 C 0.68208 0.79368 0.01274 0.00000
C909 C 0.60711 0.77116 0.02408 0.00000
C910 C 0.58168 0.76445 0.06338 0.00000
C911 C 0.51347 0.74142 0.07020 0.00000
C912 C 0.59625 0.76105 0.94944 0.00000
C913 C 0.56260 0.75432 0.99127 0.00000
C914 C 0.49402 0.73156 0.99882 0.00000
C915 C 0.46989 0.72511 0.03812 0.00000
H916 H 0.74355 0.92161 0.00266 0.00000
H917 H 0.72106 0.99623 0.94941 0.00000
H918 H 0.65793 0.66414 0.89880 0.00000
H919 H 0.77348 0.61307 0.90749 0.00000
H920 H 0.61405 0.77620 0.08878 0.00000
H921 H 0.49486 0.73567 0.10055 0.00000
H922 H 0.45922 0.71820 0.97479 0.00000
H923 H 0.41742 0.70673 0.04356 0.00000
C924 C 0.71042 0.73895 0.98580 0.00000
C925 C 0.77688 0.70971 0.98958 0.00000
C926 C 0.79876 0.66417 0.96147 0.00000
C927 C 0.62462 0.83112 0.94857 0.00000
C928 C 0.61766 0.87449 0.91643 0.00000
C929 C 0.65059 0.93415 0.91764 0.00000
C930 C 0.66956 0.84821 0.98172 0.00000
C931 C 0.70494 0.90770 0.98087 0.00000
C932 C 0.69384 0.95062 0.94959 0.00000
C933 C 0.66554 0.72191 0.95268 0.00000
C934 C 0.68908 0.67649 0.92467 0.00000
C935 C 0.75527 0.64774 0.92930 0.00000
loop_
_geom_bond_atom_site_label_1
_geom_bond_atom_site_label_2
_geom_bond_distance
_geom_bond_site_symmetry_2
_ccdc_geom_bond_type
O0 Cu1 1.878 . S
O0 C12 1.214 . A
Cu1 O7 1.878 . S
Cu1 O9 1.878 . S
Cu1 O14 1.878 . S
O2 Cu3 1.878 . S
O2 C15 1.214 . A
Cu3 O6 1.878 . S
Cu3 O10 1.878 . S
Cu3 O13 1.878 . S
Cu4 O5 1.878 . S
Cu4 O8 1.878 . S
Cu4 O11 1.878 . S
Cu4 O16 1.878 . S
O5 C17 1.214 . A
O6 C18 1.214 . A
O7 C19 1.214 . A
O8 C20 1.214 . A
O9 C20 1.214 . A
O10 C19 1.214 . A
O11 C18 1.214 . A
C12 O16 1.214 . A
O13 C17 1.214 . A
O14 C15 1.214 . A
O21 Cu22 1.878 . S
O21 C33 1.214 . A
Cu22 O28 1.878 . S
Cu22 O30 1.878 . S
Cu22 O35 1.878 . S
O23 Cu24 1.878 . S
O23 C36 1.214 . A
Cu24 O27 1.878 . S
Cu24 O31 1.878 . S
Cu24 O34 1.878 . S
Cu25 O26 1.878 . S
Cu25 O29 1.878 . S
Cu25 O32 1.878 . S
Cu25 O37 1.878 . S
O26 C38 1.214 . A
O27 C39 1.214 . A
O28 C40 1.214 . A
O29 C41 1.214 . A
O30 C41 1.214 . A
O31 C40 1.214 . A
O32 C39 1.214 . A
C33 O37 1.214 . A
O34 C38 1.214 . A
O35 C36 1.214 . A
O42 Cu43 1.878 . S
O42 C54 1.214 . A
Cu43 O49 1.878 . S
Cu43 O51 1.878 . S
Cu43 O56 1.878 . S
O44 Cu45 1.878 . S
O44 C57 1.214 . A
Cu45 O48 1.878 . S
Cu45 O52 1.878 . S
Cu45 O55 1.878 1_455 S
Cu46 O47 1.878 . S
Cu46 O50 1.878 . S
Cu46 O53 1.878 . S
Cu46 O58 1.878 . S
O47 C59 1.214 1_455 A
O48 C60 1.214 . A
O49 C61 1.214 . A
O50 C62 1.214 . A
O51 C62 1.214 . A
O52 C61 1.214 . A
O53 C60 1.214 . A
C54 O58 1.214 . A
O55 C59 1.214 . A
O56 C57 1.214 . A
O63 Cu64 1.878 . S
O63 C75 1.214 . A
Cu64 O70 1.878 . S
Cu64 O72 1.878 . S
Cu64 O77 1.878 . S
O65 Cu66 1.878 . S
O65 C78 1.214 . A
Cu66 O69 1.878 . S
Cu66 O73 1.878 . S
Cu66 O76 1.878 1_655 S
Cu67 O68 1.878 . S
Cu67 O71 1.878 . S
Cu67 O74 1.878 . S
Cu67 O79 1.878 . S
O68 C80 1.214 1_655 A
O69 C81 1.214 . A
O70 C82 1.214 . A
O71 C83 1.214 . A
O72 C83 1.214 . A
O73 C82 1.214 . A
O74 C81 1.214 . A
C75 O79 1.214 . A
O76 C80 1.214 . A
O77 C78 1.214 . A
O84 Cu85 1.878 . S
O84 C96 1.214 . A
Cu85 O91 1.878 . S
Cu85 O93 1.878 . S
Cu85 O98 1.878 . S
O86 Cu87 1.878 . S
O86 C99 1.214 . A
Cu87 O90 1.878 . S
Cu87 O94 1.878 . S
Cu87 O97 1.878 . S
Cu88 O89 1.878 . S
Cu88 O92 1.878 . S
Cu88 O95 1.878 . S
Cu88 O100 1.878 . S
O89 C101 1.214 . A
O90 C102 1.214 . A
O91 C103 1.214 . A
O92 C104 1.214 . A
O93 C104 1.214 . A
O94 C103 1.214 . A
O95 C102 1.214 . A
C96 O100 1.214 . A
O97 C101 1.214 . A
O98 C99 1.214 . A
O105 Cu106 1.878 . S
O105 C117 1.214 . A
Cu106 O112 1.878 . S
Cu106 O114 1.878 . S
Cu106 O119 1.878 . S
O107 Cu108 1.878 . S
O107 C120 1.214 . A
Cu108 O111 1.878 1_655 S
Cu108 O115 1.878 . S
Cu108 O118 1.878 . S
Cu109 O110 1.878 . S
Cu109 O113 1.878 . S
Cu109 O116 1.878 . S
Cu109 O121 1.878 . S
O110 C122 1.214 . A
O111 C123 1.214 . A
O112 C124 1.214 . A
O113 C125 1.214 . A
O114 C125 1.214 . A
O115 C124 1.214 . A
O116 C123 1.214 1_655 A
C117 O121 1.214 . A
O118 C122 1.214 . A
O119 C120 1.214 . A
O126 Cu127 1.878 . S
O126 C138 1.214 . A
Cu127 O133 1.878 . S
Cu127 O135 1.878 . S
Cu127 O140 1.878 . S
O128 Cu129 1.878 . S
O128 C141 1.214 . A
Cu129 O132 1.878 1_455 S
Cu129 O136 1.878 . S
Cu129 O139 1.878 . S
Cu130 O131 1.878 . S
Cu130 O134 1.878 . S
Cu130 O137 1.878 . S
Cu130 O142 1.878 . S
O131 C143 1.214 . A
O132 C144 1.214 . A
O133 C145 1.214 . A
O134 C146 1.214 . A
O135 C146 1.214 . A
O136 C145 1.214 . A
O137 C144 1.214 1_455 A
C138 O142 1.214 . A
O139 C143 1.214 . A
O140 C141 1.214 . A
O147 Cu148 1.878 . S
O147 C159 1.214 . A
Cu148 O154 1.878 . S
Cu148 O156 1.878 . S
Cu148 O161 1.878 . S
O149 Cu150 1.878 . S
O149 C162 1.214 . A
Cu150 O153 1.878 . S
Cu150 O157 1.878 . S
Cu150 O160 1.878 . S
Cu151 O152 1.878 . S
Cu151 O155 1.878 . S
Cu151 O158 1.878 . S
Cu151 O163 1.878 . S
O152 C164 1.214 . A
O153 C165 1.214 . A
O154 C166 1.214 . A
O155 C167 1.214 . A
O156 C167 1.214 . A
O157 C166 1.214 . A
O158 C165 1.214 . A
C159 O163 1.214 . A
O160 C164 1.214 . A
O161 C162 1.214 . A
H168 C189 1.080 . S
H169 C190 1.083 . S
H170 C192 1.073 . S
H171 C193 1.083 . S
C172 C173 1.540 1_565 S
C172 C188 1.549 1_565 S
C172 C194 1.559 . S
C173 C174 1.403 . A
C173 C177 1.429 . A
C174 C175 1.395 . A
C174 H184 1.077 1_545 S
C175 C179 1.397 . A
C175 H185 1.079 . S
C176 C177 1.540 . S
C176 C191 1.559 . S
C176 C197 1.549 . S
C177 C178 1.403 . A
C178 C179 1.395 . A
C178 H186 1.077 . S
C179 H187 1.079 1_554 S
H180 C195 1.074 . S
H181 C196 1.083 . S
H182 C198 1.080 . S
H183 C199 1.082 . S
C188 C189 1.404 . A
C188 C197 1.442 . A
C189 C190 1.398 . A
C190 C199 1.399 . A
C191 C192 1.411 . A
C191 C194 1.444 1_545 A
C192 C193 1.394 1_545 A
C193 C196 1.391 . A
C194 C195 1.411 . A
C195 C196 1.394 . A
C197 C198 1.404 . A
C198 C199 1.398 . A
H200 C221 1.080 . S
H201 C222 1.083 . S
H202 C224 1.073 . S
H203 C225 1.083 . S
C204 C205 1.540 . S
C204 C220 1.549 . S
C204 C226 1.559 . S
C205 C206 1.403 . A
C205 C209 1.429 . A
C206 C207 1.395 . A
C206 H216 1.077 . S
C207 C211 1.397 . A
C207 H217 1.079 . S
C208 C209 1.540 1_545 S
C208 C223 1.559 . S
C208 C229 1.549 1_545 S
C209 C210 1.403 . A
C210 C211 1.395 . A
C210 H218 1.077 . S
C211 H219 1.079 . S
H212 C227 1.074 . S
H213 C228 1.083 . S
H214 C230 1.080 . S
H215 C231 1.082 . S
C220 C221 1.404 . A
C220 C229 1.442 . A
C221 C222 1.398 . A
C222 C231 1.399 1_565 A
C223 C224 1.411 . A
C223 C226 1.444 1_545 A
C224 C225 1.394 . A
C225 C228 1.391 . A
C226 C227 1.411 . A
C227 C228 1.394 1_565 A
C229 C230 1.404 1_565 A
C230 C231 1.398 . A
H232 C253 1.080 . S
H233 C254 1.083 . S
H234 C256 1.073 . S
H235 C257 1.083 . S
C236 C237 1.540 . S
C236 C252 1.549 . S
C236 C258 1.559 . S
C237 C238 1.403 . A
C237 C241 1.429 . A
C238 C239 1.395 . A
C238 H248 1.077 . S
C239 C243 1.397 . A
C239 H249 1.079 . S
C240 C241 1.540 . S
C240 C255 1.559 . S
C240 C261 1.549 . S
C241 C242 1.403 . A
C242 C243 1.395 . A
C242 H250 1.077 . S
C243 H251 1.079 . S
H244 C259 1.074 . S
H245 C260 1.083 . S
H246 C262 1.080 . S
H247 C263 1.082 . S
C252 C253 1.404 . A
C252 C261 1.442 . A
C253 C254 1.398 . A
C254 C263 1.399 . A
C255 C256 1.411 . A
C255 C258 1.444 . A
C256 C257 1.394 . A
C257 C260 1.391 . A
C258 C259 1.411 . A
C259 C260 1.394 . A
C261 C262 1.404 . A
C262 C263 1.398 . A
H264 C285 1.080 . S
H265 C286 1.083 . S
H266 C288 1.073 . S
H267 C289 1.083 . S
C268 C269 1.540 . S
C268 C284 1.549 . S
C268 C290 1.559 . S
C269 C270 1.403 . A
C269 C273 1.429 . A
C270 C271 1.395 . A
C270 H280 1.077 . S
C271 C275 1.397 . A
C271 H281 1.079 . S
C272 C273 1.540 . S
C272 C287 1.559 . S
C272 C293 1.549 . S
C273 C274 1.403 . A
C274 C275 1.395 . A
C274 H282 1.077 . S
C275 H283 1.079 . S
H276 C291 1.074 . S
H277 C292 1.083 . S
H278 C294 1.080 . S
H279 C295 1.082 . S
C284 C285 1.404 . A
C284 C293 1.442 . A
C285 C286 1.398 . A
C286 C295 1.399 . A
C287 C288 1.411 . A
C287 C290 1.444 . A
C288 C289 1.394 . A
C289 C292 1.391 . A
C290 C291 1.411 . A
C291 C292 1.394 . A
C293 C294 1.404 . A
C294 C295 1.398 . A
H296 C317 1.080 . S
H297 C318 1.083 . S
H298 C320 1.073 . S
H299 C321 1.083 1_545 S
C300 C301 1.540 1_565 S
C300 C316 1.549 1_565 S
C300 C322 1.559 . S
C301 C302 1.403 . A
C301 C305 1.429 . A
C302 C303 1.395 . A
C302 H312 1.077 . S
C303 C307 1.397 . A
C303 H313 1.079 . S
C304 C305 1.540 . S
C304 C319 1.559 . S
C304 C325 1.549 . S
C305 C306 1.403 . A
C306 C307 1.395 . A
C306 H314 1.077 . S
C307 H315 1.079 . S
H308 C323 1.074 . S
H309 C324 1.083 . S
H310 C326 1.080 . S
H311 C327 1.082 . S
C316 C317 1.403 1_545 A
C316 C325 1.444 . A
C317 C318 1.398 . A
C318 C327 1.399 1_565 A
C319 C320 1.411 . A
C319 C322 1.444 1_545 A
C320 C321 1.389 1_545 A
C321 C324 1.396 . A
C322 C323 1.411 . A
C323 C324 1.394 . A
C325 C326 1.404 . A
C326 C327 1.398 . A
H328 C349 1.080 . S
H329 C350 1.083 . S
H330 C352 1.073 . S
H331 C353 1.083 . S
C332 C333 1.540 . S
C332 C348 1.549 . S
C332 C354 1.559 . S
C333 C334 1.403 . A
C333 C337 1.429 . A
C334 C335 1.395 . A
C334 H344 1.077 . S
C335 C339 1.397 . A
C335 H345 1.079 . S
C336 C337 1.540 . S
C336 C351 1.559 . S
C336 C357 1.549 . S
C337 C338 1.403 . A
C338 C339 1.395 . A
C338 H346 1.077 . S
C339 H347 1.079 . S
H340 C355 1.074 . S
H341 C356 1.083 . S
H342 C358 1.080 . S
H343 C359 1.082 . S
C348 C349 1.404 . A
C348 C357 1.442 . A
C349 C350 1.398 . A
C350 C359 1.399 . A
C351 C352 1.411 . A
C351 C354 1.444 . A
C352 C353 1.394 . A
C353 C356 1.391 . A
C354 C355 1.411 . A
C355 C356 1.394 . A
C357 C358 1.404 . A
C358 C359 1.398 . A
H360 C381 1.080 . S
H361 C382 1.083 . S
H362 C384 1.073 . S
H363 C385 1.083 . S
C364 C365 1.540 . S
C364 C380 1.549 . S
C364 C386 1.559 . S
C365 C366 1.403 . A
C365 C369 1.429 . A
C366 C367 1.395 . A
C366 H376 1.077 . S
C367 C371 1.397 . A
C367 H377 1.079 . S
C368 C369 1.540 . S
C368 C383 1.559 . S
C368 C389 1.549 . S
C369 C370 1.403 . A
C370 C371 1.395 . A
C370 H378 1.077 . S
C371 H379 1.079 . S
H372 C387 1.074 . S
H373 C388 1.083 . S
H374 C390 1.080 . S
H375 C391 1.082 . S
C380 C381 1.404 . A
C380 C389 1.442 . A
C381 C382 1.398 . A
C382 C391 1.399 . A
C383 C384 1.411 . A
C383 C386 1.444 . A
C384 C385 1.394 . A
C385 C388 1.391 . A
C386 C387 1.411 . A
C387 C388 1.394 . A
C389 C390 1.404 . A
C390 C391 1.398 . A
H392 C413 1.080 . S
H393 C414 1.083 . S
H394 C416 1.073 . S
H395 C417 1.083 . S
C396 C397 1.540 1_545 S
C396 C412 1.549 . S
C396 C418 1.559 1_545 S
C397 C398 1.403 . A
C397 C401 1.429 . A
C398 C399 1.395 . A
C398 H408 1.077 1_565 S
C399 C403 1.397 . A
C399 H409 1.079 . S
C400 C401 1.540 . S
C400 C415 1.559 . S
C400 C421 1.549 . S
C401 C402 1.403 . A
C402 C403 1.395 . A
C402 H410 1.077 . S
C403 H411 1.079 . S
H404 C419 1.074 1_545 S
H405 C420 1.083 . S
H406 C422 1.080 . S
H407 C423 1.082 . S
C412 C413 1.404 . A
C412 C421 1.442 1_545 A
C413 C414 1.398 . A
C414 C423 1.399 . A
C415 C416 1.411 . A
C415 C418 1.444 . A
C416 C417 1.394 . A
C417 C420 1.391 . A
C418 C419 1.411 . A
C419 C420 1.394 . A
C421 C422 1.404 . A
C422 C423 1.398 1_565 A
H424 C445 1.080 . S
H425 C446 1.083 . S
H426 C448 1.073 . S
H427 C449 1.083 . S
C428 C429 1.540 1_556 S
C428 C444 1.549 1_556 S
C428 C450 1.559 . S
C429 C430 1.403 . A
C429 C433 1.429 . A
C430 C431 1.395 . A
C430 H440 1.077 . S
C431 C435 1.397 . A
C431 H441 1.079 . S
C432 C433 1.541 . S
C432 C447 1.553 1_554 S
C432 C453 1.553 . S
C433 C434 1.403 . A
C434 C435 1.395 . A
C434 H442 1.077 . S
C435 H443 1.079 . S
H436 C451 1.074 . S
H437 C452 1.083 . S
H438 C454 1.080 . S
H439 C455 1.082 . S
C444 C445 1.404 . A
C444 C453 1.442 . A
C445 C446 1.398 . A
C446 C455 1.399 . A
C447 C448 1.411 . A
C447 C450 1.444 . A
C448 C449 1.394 . A
C449 C452 1.391 . A
C450 C451 1.411 . A
C451 C452 1.394 . A
C453 C454 1.404 . A
C454 C455 1.398 . A
H456 C477 1.080 . S
H457 C478 1.083 . S
H458 C480 1.073 . S
H459 C481 1.083 . S
C460 C461 1.540 . S
C460 C476 1.549 . S
C460 C482 1.559 . S
C461 C462 1.403 . A
C461 C465 1.429 . A
C462 C463 1.395 . A
C462 H472 1.077 . S
C463 C467 1.397 . A
C463 H473 1.079 . S
C464 C465 1.540 . S
C464 C479 1.559 . S
C464 C485 1.549 . S
C465 C466 1.403 . A
C466 C467 1.395 . A
C466 H474 1.077 . S
C467 H475 1.079 . S
H468 C483 1.074 . S
H469 C484 1.083 . S
H470 C486 1.080 . S
H471 C487 1.082 . S
C476 C477 1.404 . A
C476 C485 1.442 . A
C477 C478 1.398 . A
C478 C487 1.399 . A
C479 C480 1.411 . A
C479 C482 1.444 . A
C480 C481 1.394 . A
C481 C484 1.391 . A
C482 C483 1.411 . A
C483 C484 1.394 . A
C485 C486 1.404 . A
C486 C487 1.398 . A
H488 C509 1.080 . S
H489 C510 1.083 . S
H490 C512 1.073 . S
H491 C513 1.083 . S
C492 C493 1.540 1_654 S
C492 C508 1.549 . S
C492 C514 1.559 1_554 S
C493 C494 1.403 1_556 A
C493 C497 1.429 . A
C494 C495 1.395 1_554 A
C494 H504 1.077 . S
C495 C499 1.397 . A
C495 H505 1.078 1_556 S
C496 C497 1.540 1_545 S
C496 C511 1.559 1_455 S
C496 C517 1.549 1_456 S
C497 C498 1.403 . A
C498 C499 1.395 . A
C498 H506 1.077 1_565 S
C499 H507 1.079 . S
H500 C515 1.074 . S
H501 C516 1.083 . S
H502 C518 1.080 1_455 S
H503 C519 1.082 . S
C508 C509 1.404 . A
C508 C517 1.442 1_565 A
C509 C510 1.398 1_565 A
C510 C519 1.399 . A
C511 C512 1.411 . A
C511 C514 1.444 1_545 A
C512 C513 1.394 . A
C513 C516 1.391 . A
C514 C515 1.411 . A
C515 C516 1.394 1_565 A
C517 C518 1.404 . A
C518 C519 1.398 . A
H520 C541 1.080 . S
H521 C542 1.083 . S
H522 C544 1.073 . S
H523 C545 1.083 1_545 S
C524 C525 1.540 1_565 S
C524 C540 1.549 1_455 S
C524 C546 1.559 1_455 S
C525 C526 1.403 . A
C525 C529 1.429 . A
C526 C527 1.395 . A
C526 H536 1.077 1_545 S
C527 C531 1.397 . A
C527 H537 1.079 . S
C528 C529 1.540 1_655 S
C528 C543 1.559 . S
C528 C549 1.549 1_545 S
C529 C530 1.403 . A
C530 C531 1.395 . A
C530 H538 1.077 . S
C531 H539 1.079 . S
H532 C547 1.074 1_455 S
H533 C548 1.083 . S
H534 C550 1.080 1_545 S
H535 C551 1.082 . S
C540 C541 1.404 . A
C540 C549 1.442 . A
C541 C542 1.398 . A
C542 C551 1.399 . A
C543 C544 1.411 . A
C543 C546 1.444 1_545 A
C544 C545 1.394 1_545 A
C545 C548 1.391 . A
C546 C547 1.411 . A
C547 C548 1.394 . A
C549 C550 1.404 . A
C550 C551 1.398 . A
H552 C573 1.080 . S
H553 C574 1.083 . S
H554 C576 1.073 . S
H555 C577 1.083 . S
C556 C557 1.540 . S
C556 C572 1.549 . S
C556 C578 1.559 . S
C557 C558 1.403 . A
C557 C561 1.429 . A
C558 C559 1.395 . A
C558 H568 1.077 . S
C559 C563 1.397 . A
C559 H569 1.079 . S
C560 C561 1.540 . S
C560 C575 1.559 . S
C560 C581 1.549 . S
C561 C562 1.403 . A
C562 C563 1.395 . A
C562 H570 1.077 . S
C563 H571 1.079 . S
H564 C579 1.074 . S
H565 C580 1.083 . S
H566 C582 1.080 . S
H567 C583 1.082 . S
C572 C573 1.404 . A
C572 C581 1.442 . A
C573 C574 1.398 . A
C574 C583 1.399 . A
C575 C576 1.411 . A
C575 C578 1.444 . A
C576 C577 1.394 . A
C577 C580 1.391 . A
C578 C579 1.411 . A
C579 C580 1.394 . A
C581 C582 1.404 . A
C582 C583 1.398 . A
H584 C605 1.080 . S
H585 C606 1.083 . S
H586 C608 1.073 . S
H587 C609 1.083 . S
C588 C589 1.540 . S
C588 C604 1.549 . S
C588 C610 1.559 . S
C589 C590 1.403 . A
C589 C593 1.429 . A
C590 C591 1.395 . A
C590 H600 1.077 . S
C591 C595 1.397 . A
C591 H601 1.079 . S
C592 C593 1.540 . S
C592 C607 1.559 . S
C592 C613 1.549 . S
C593 C594 1.403 . A
C594 C595 1.395 . A
C594 H602 1.077 . S
C595 H603 1.079 . S
H596 C611 1.074 . S
H597 C612 1.083 . S
H598 C614 1.080 . S
H599 C615 1.082 . S
C604 C605 1.404 . A
C604 C613 1.442 . A
C605 C606 1.398 . A
C606 C615 1.399 . A
C607 C608 1.411 . A
C607 C610 1.444 . A
C608 C609 1.394 . A
C609 C612 1.391 . A
C610 C611 1.411 . A
C611 C612 1.394 . A
C613 C614 1.404 . A
C614 C615 1.398 . A
H616 C637 1.080 . S
H617 C638 1.083 . S
H618 C640 1.073 . S
H619 C641 1.083 1_565 S
C620 C621 1.540 . S
C620 C636 1.549 1_655 S
C620 C642 1.559 1_655 S
C621 C622 1.403 . A
C621 C625 1.429 . A
C622 C623 1.395 . A
C622 H632 1.077 . S
C623 C627 1.397 . A
C623 H633 1.079 . S
C624 C625 1.540 1_455 S
C624 C639 1.559 . S
C624 C645 1.549 . S
C625 C626 1.403 . A
C626 C627 1.395 . A
C626 H634 1.077 . S
C627 H635 1.079 . S
H628 C643 1.074 1_655 S
H629 C644 1.083 1_565 S
H630 C646 1.080 . S
H631 C647 1.082 . S
C636 C637 1.404 . A
C636 C645 1.442 . A
C637 C638 1.398 . A
C638 C647 1.399 . A
C639 C640 1.411 . A
C639 C642 1.444 . A
C640 C641 1.394 . A
C641 C644 1.391 . A
C642 C643 1.411 . A
C643 C644 1.394 . A
C645 C646 1.404 . A
C646 C647 1.398 . A
H648 C669 1.080 . S
H649 C670 1.083 . S
H650 C672 1.073 . S
H651 C673 1.083 . S
C652 C653 1.540 . S
C652 C668 1.549 1_655 S
C652 C674 1.553 1_655 S
C653 C654 1.403 . A
C653 C657 1.429 . A
C654 C655 1.395 . A
C654 H664 1.077 . S
C655 C659 1.397 . A
C655 H665 1.079 . S
C656 C657 1.540 1_455 S
C656 C671 1.559 . S
C656 C677 1.549 . S
C657 C658 1.403 . A
C658 C659 1.395 . A
C658 H666 1.077 . S
C659 H667 1.079 . S
H660 C675 1.074 1_655 S
H661 C676 1.083 . S
H662 C678 1.080 . S
H663 C679 1.082 . S
C668 C669 1.404 . A
C668 C677 1.442 . A
C669 C670 1.398 . A
C670 C679 1.399 . A
C671 C672 1.411 . A
C671 C674 1.450 . A
C672 C673 1.394 . A
C673 C676 1.391 . A
C674 C675 1.412 . A
C675 C676 1.394 . A
C677 C678 1.404 . A
C678 C679 1.398 . A
H680 C701 1.080 . S
H681 C702 1.083 . S
H682 C704 1.073 . S
H683 C705 1.083 . S
C684 C685 1.540 . S
C684 C700 1.549 . S
C684 C706 1.559 . S
C685 C686 1.403 . A
C685 C689 1.429 . A
C686 C687 1.395 . A
C686 H696 1.077 . S
C687 C691 1.397 . A
C687 H697 1.079 . S
C688 C689 1.540 1_556 S
C688 C703 1.559 . S
C688 C709 1.549 . S
C689 C690 1.403 . A
C690 C691 1.395 . A
C690 H698 1.077 . S
C691 H699 1.079 . S
H692 C707 1.074 . S
H693 C708 1.083 . S
H694 C710 1.080 . S
H695 C711 1.082 . S
C700 C701 1.404 . A
C700 C709 1.442 1_554 A
C701 C702 1.398 . A
C702 C711 1.399 1_554 A
C703 C704 1.411 . A
C703 C706 1.444 1_556 A
C704 C705 1.394 . A
C705 C708 1.391 . A
C706 C707 1.411 . A
C707 C708 1.394 1_554 A
C709 C710 1.404 . A
C710 C711 1.398 . A
H712 C733 1.080 . S
H713 C734 1.083 . S
H714 C736 1.073 . S
H715 C737 1.083 . S
C716 C717 1.540 . S
C716 C732 1.549 . S
C716 C738 1.559 . S
C717 C718 1.403 . A
C717 C721 1.429 . A
C718 C719 1.395 . A
C718 H728 1.077 . S
C719 C723 1.397 . A
C719 H729 1.079 . S
C720 C721 1.540 . S
C720 C735 1.559 . S
C720 C741 1.549 . S
C721 C722 1.403 . A
C722 C723 1.395 . A
C722 H730 1.077 . S
C723 H731 1.079 . S
H724 C739 1.074 . S
H725 C740 1.082 1_545 S
H726 C742 1.080 . S
H727 C743 1.082 . S
C732 C733 1.404 . A
C732 C741 1.442 . A
C733 C734 1.398 . A
C734 C743 1.399 . A
C735 C736 1.411 . A
C735 C738 1.444 . A
C736 C737 1.394 . A
C737 C740 1.391 . A
C738 C739 1.411 . A
C739 C740 1.394 . A
C741 C742 1.404 . A
C742 C743 1.398 . A
H744 C765 1.080 1_455 S
H745 C766 1.083 1_455 S
H746 C768 1.073 . S
H747 C769 1.083 . S
C748 C749 1.540 . S
C748 C764 1.549 . S
C748 C770 1.559 . S
C749 C750 1.403 . A
C749 C753 1.429 . A
C750 C751 1.395 . A
C750 H760 1.077 . S
C751 C755 1.397 . A
C751 H761 1.079 . S
C752 C753 1.540 1_554 S
C752 C767 1.559 . S
C752 C773 1.549 . S
C753 C754 1.403 . A
C754 C755 1.395 . A
C754 H762 1.077 . S
C755 H763 1.079 . S
H756 C771 1.074 1_455 S
H757 C772 1.083 1_455 S
H758 C774 1.080 . S
H759 C775 1.082 . S
C764 C765 1.404 . A
C764 C773 1.442 1_556 A
C765 C766 1.398 . A
C766 C775 1.399 1_556 A
C767 C768 1.411 . A
C767 C770 1.444 1_554 A
C768 C769 1.394 . A
C769 C772 1.391 . A
C770 C771 1.411 . A
C771 C772 1.394 1_556 A
C773 C774 1.404 . A
C774 C775 1.398 . A
H776 C797 1.080 . S
H777 C798 1.083 . S
H778 C800 1.073 . S
H779 C801 1.083 . S
C780 C781 1.540 . S
C780 C796 1.549 . S
C780 C802 1.559 . S
C781 C782 1.403 1_455 A
C781 C785 1.429 . A
C782 C783 1.395 . A
C782 H792 1.077 . S
C783 C787 1.397 1_655 A
C783 H793 1.079 . S
C784 C785 1.540 . S
C784 C799 1.559 . S
C784 C805 1.549 . S
C785 C786 1.403 . A
C786 C787 1.395 . A
C786 H794 1.077 . S
C787 H795 1.079 1_455 S
H788 C803 1.074 . S
H789 C804 1.083 . S
H790 C806 1.080 . S
H791 C807 1.082 . S
C796 C797 1.404 . A
C796 C805 1.442 . A
C797 C798 1.398 . A
C798 C807 1.399 . A
C799 C800 1.411 . A
C799 C802 1.444 . A
C800 C801 1.394 . A
C801 C804 1.391 . A
C802 C803 1.411 . A
C803 C804 1.394 . A
C805 C806 1.404 . A
C806 C807 1.398 . A
H808 C829 1.080 . S
H809 C830 1.083 . S
H810 C832 1.073 . S
H811 C833 1.083 . S
C812 C813 1.540 . S
C812 C828 1.549 . S
C812 C834 1.559 . S
C813 C814 1.403 . A
C813 C817 1.429 . A
C814 C815 1.395 . A
C814 H824 1.077 . S
C815 C819 1.397 . A
C815 H825 1.079 . S
C816 C817 1.540 . S
C816 C831 1.559 . S
C816 C837 1.549 . S
C817 C818 1.403 . A
C818 C819 1.395 . A
C818 H826 1.077 . S
C819 H827 1.079 . S
H820 C835 1.074 . S
H821 C836 1.083 . S
H822 C838 1.080 . S
H823 C839 1.082 . S
C828 C829 1.404 . A
C828 C837 1.442 . A
C829 C830 1.398 . A
C830 C839 1.399 . A
C831 C832 1.411 . A
C831 C834 1.444 . A
C832 C833 1.394 . A
C833 C836 1.391 . A
C834 C835 1.411 . A
C835 C836 1.394 . A
C837 C838 1.404 . A
C838 C839 1.398 . A
H840 C861 1.080 . S
H841 C862 1.083 . S
H842 C864 1.073 . S
H843 C865 1.083 . S
C844 C845 1.540 . S
C844 C860 1.549 . S
C844 C866 1.559 1_556 S
C845 C846 1.403 . A
C845 C849 1.429 1_556 A
C846 C847 1.395 . A
C846 H856 1.077 . S
C847 C851 1.397 1_456 A
C847 H857 1.079 . S
C848 C849 1.540 . S
C848 C863 1.559 . S
C848 C869 1.549 . S
C849 C850 1.403 . A
C850 C851 1.395 1_455 A
C850 H858 1.077 1_455 S
C851 H859 1.079 . S
H852 C867 1.074 . S
H853 C868 1.083 . S
H854 C870 1.080 . S
H855 C871 1.082 . S
C860 C861 1.404 . A
C860 C869 1.442 1_556 A
C861 C862 1.398 . A
C862 C871 1.399 . A
C863 C864 1.411 . A
C863 C866 1.444 . A
C864 C865 1.394 . A
C865 C868 1.391 . A
C866 C867 1.411 . A
C867 C868 1.394 . A
C869 C870 1.404 . A
C870 C871 1.398 1_554 A
H872 C893 1.080 . S
H873 C894 1.083 . S
H874 C896 1.073 . S
H875 C897 1.083 . S
C876 C877 1.540 . S
C876 C892 1.549 . S
C876 C898 1.559 . S
C877 C878 1.403 . A
C877 C881 1.429 . A
C878 C879 1.395 . A
C878 H888 1.077 . S
C879 C883 1.397 . A
C879 H889 1.079 . S
C880 C881 1.540 . S
C880 C895 1.559 . S
C880 C901 1.549 . S
C881 C882 1.403 . A
C882 C883 1.395 . A
C882 H890 1.077 . S
C883 H891 1.079 . S
H884 C899 1.074 . S
H885 C900 1.083 . S
H886 C902 1.080 . S
H887 C903 1.082 . S
C892 C893 1.404 . A
C892 C901 1.442 . A
C893 C894 1.398 . A
C894 C903 1.399 1_655 A
C895 C896 1.411 . A
C895 C898 1.444 . A
C896 C897 1.394 . A
C897 C900 1.391 . A
C898 C899 1.411 . A
C899 C900 1.394 . A
C901 C902 1.404 1_655 A
C902 C903 1.398 . A
H904 C925 1.080 1_554 S
H905 C926 1.083 . S
H906 C928 1.073 . S
H907 C929 1.083 . S
C908 C909 1.540 . S
C908 C924 1.549 1_554 S
C908 C930 1.559 1_554 S
C909 C910 1.403 . A
C909 C913 1.429 1_554 A
C910 C911 1.395 . A
C910 H920 1.077 . S
C911 C915 1.397 . A
C911 H921 1.079 . S
C912 C913 1.540 . S
C912 C927 1.559 . S
C912 C933 1.549 . S
C913 C914 1.403 . A
C914 C915 1.395 1_556 A
C914 H922 1.077 . S
C915 H923 1.079 . S
H916 C931 1.074 1_554 S
H917 C932 1.083 . S
H918 C934 1.080 . S
H919 C935 1.082 . S
C924 C925 1.404 . A
C924 C933 1.442 . A
C925 C926 1.398 . A
C926 C935 1.399 . A
C927 C928 1.411 . A
C927 C930 1.444 . A
C928 C929 1.394 . A
C929 C932 1.391 . A
C930 C931 1.411 . A
C931 C932 1.394 . A
C933 C934 1.404 . A
C934 C935 1.398 . A
C172 C120 1.627 . S
C176 C18 1.602 . S
C204 C38 1.601 . S
C208 C82 1.626 . S
C236 C54 1.696 . S
C240 C162 1.622 . S
C268 C40 1.640 . S
C272 C75 1.685 . S
C300 C141 1.615 . S
C304 C96 1.693 . S
C332 C125 1.691 . S
C336 C15 1.647 . S
C364 C103 1.617 . S
C368 C146 1.699 . S
C396 C61 1.626 . S
C400 C167 1.701 . S
C428 C164 1.211 . S
C432 C12 1.454 . S
C460 C41 1.422 . S
C464 C102 1.261 . S
C492 C122 1.260 . S
C496 C60 1.215 . S
C524 C143 1.212 . S
C528 C81 1.262 . S
C556 C99 1.548 . S
C560 C19 1.482 . S
C588 C166 1.553 . S
C592 C36 1.492 . S
C620 C78 1.557 . S
C624 C57 1.551 . S
C652 C124 1.563 . S
C656 C145 1.558 . S
C684 C20 1.406 . S
C688 C62 1.522 . S
C716 C138 1.519 . S
C720 C33 1.437 . S
C748 C59 1.482 . S
C752 C17 1.581 . S
C780 C80 1.503 . S
C784 C104 1.520 . S
C812 C101 1.486 . S
C816 C83 1.544 . S
C844 C159 1.504 . S
C848 C123 1.498 . S
C876 C39 1.578 . S
C880 C144 1.483 . S
C908 C117 1.537 . S
C912 C165 1.519 . S
