# Generated by pormake.
# Topology wgz, (6)-cn, num edge types: 1
# Building blocks:
#     Node 0, Type 0, BuildingBlock: N308, # of connection points: 6
#     Node 1, Type 0, BuildingBlock: N308, # of connection points: 6
#     Node 2, Type 0, BuildingBlock: N308, # of connection points: 6
#     Node 3, Type 0, BuildingBlock: N308, # of connection points: 6
#     Node 4, Type 0, BuildingBlock: N308, # of connection points: 6
#     Node 5, Type 0, BuildingBlock: N308, # of connection points: 6
#     Node 6, Type 0, BuildingBlock: N308, # of connection points: 6
#     Node 7, Type 0, BuildingBlock: N308, # of connection points: 6
#     Node 8, Type 0, BuildingBlock: N308, # of connection points: 6
#     Node 9, Type 0, BuildingBlock: N308, # of connection points: 6
#     Node 10, Type 0, BuildingBlock: N308, # of connection points: 6
#     Node 11, Type 0, BuildingBlock: N308, # of connection points: 6
#     Node 12, Type 0, BuildingBlock: N308, # of connection points: 6
#     Node 13, Type 0, BuildingBlock: N308, # of connection points: 6
#     Node 14, Type 0, BuildingBlock: N308, # of connection points: 6
#     Node 15, Type 0, BuildingBlock: N308, # of connection points: 6
#     Edge 16, Type (0, 0), BuildingBlock: E184, # of connection points: 2
#     Edge 17, Type (0, 0), BuildingBlock: E184, # of connection points: 2
#     Edge 18, Type (0, 0), BuildingBlock: E184, # of connection points: 2
#     Edge 19, Type (0, 0), BuildingBlock: E184, # of connection points: 2
#     Edge 20, Type (0, 0), BuildingBlock: E184, # of connection points: 2
#     Edge 21, Type (0, 0), BuildingBlock: E184, # of connection points: 2
#     Edge 22, Type (0, 0), BuildingBlock: E184, # of connection points: 2
#     Edge 23, Type (0, 0), BuildingBlock: E184, # of connection points: 2
#     Edge 24, Type (0, 0), BuildingBlock: E184, # of connection points: 2
#     Edge 25, Type (0, 0), BuildingBlock: E184, # of connection points: 2
#     Edge 26, Type (0, 0), BuildingBlock: E184, # of connection points: 2
#     Edge 27, Type (0, 0), BuildingBlock: E184, # of connection points: 2
#     Edge 28, Type (0, 0), BuildingBlock: E184, # of connection points: 2
#     Edge 29, Type (0, 0), BuildingBlock: E184, # of connection points: 2
#     Edge 30, Type (0, 0), BuildingBlock: E184, # of connection points: 2
#     Edge 31, Type (0, 0), BuildingBlock: E184, # of connection points: 2
#     Edge 32, Type (0, 0), BuildingBlock: E184, # of connection points: 2
#     Edge 33, Type (0, 0), BuildingBlock: E184, # of connection points: 2
#     Edge 34, Type (0, 0), BuildingBlock: E184, # of connection points: 2
#     Edge 35, Type (0, 0), BuildingBlock: E184, # of connection points: 2
#     Edge 36, Type (0, 0), BuildingBlock: E184, # of connection points: 2
#     Edge 37, Type (0, 0), BuildingBlock: E184, # of connection points: 2
#     Edge 38, Type (0, 0), BuildingBlock: E184, # of connection points: 2
#     Edge 39, Type (0, 0), BuildingBlock: E184, # of connection points: 2
#     Edge 40, Type (0, 0), BuildingBlock: E184, # of connection points: 2
#     Edge 41, Type (0, 0), BuildingBlock: E184, # of connection points: 2
#     Edge 42, Type (0, 0), BuildingBlock: E184, # of connection points: 2
#     Edge 43, Type (0, 0), BuildingBlock: E184, # of connection points: 2
#     Edge 44, Type (0, 0), BuildingBlock: E184, # of connection points: 2
#     Edge 45, Type (0, 0), BuildingBlock: E184, # of connection points: 2
#     Edge 46, Type (0, 0), BuildingBlock: E184, # of connection points: 2
#     Edge 47, Type (0, 0), BuildingBlock: E184, # of connection points: 2
#     Edge 48, Type (0, 0), BuildingBlock: E184, # of connection points: 2
#     Edge 49, Type (0, 0), BuildingBlock: E184, # of connection points: 2
#     Edge 50, Type (0, 0), BuildingBlock: E184, # of connection points: 2
#     Edge 51, Type (0, 0), BuildingBlock: E184, # of connection points: 2
#     Edge 52, Type (0, 0), BuildingBlock: E184, # of connection points: 2
#     Edge 53, Type (0, 0), BuildingBlock: E184, # of connection points: 2
#     Edge 54, Type (0, 0), BuildingBlock: E184, # of connection points: 2
#     Edge 55, Type (0, 0), BuildingBlock: E184, # of connection points: 2
#     Edge 56, Type (0, 0), BuildingBlock: E184, # of connection points: 2
#     Edge 57, Type (0, 0), BuildingBlock: E184, # of connection points: 2
#     Edge 58, Type (0, 0), BuildingBlock: E184, # of connection points: 2
#     Edge 59, Type (0, 0), BuildingBlock: E184, # of connection points: 2
#     Edge 60, Type (0, 0), BuildingBlock: E184, # of connection points: 2
#     Edge 61, Type (0, 0), BuildingBlock: E184, # of connection points: 2
#     Edge 62, Type (0, 0), BuildingBlock: E184, # of connection points: 2
#     Edge 63, Type (0, 0), BuildingBlock: E184, # of connection points: 2
# Relax obj value: 0.304
# Max RMSD: 0.202
# Mean RMSD: 0.202
data_wgz+N308+E184
_symmetry_space_group_name_H-M    P1
_symmetry_Int_Tables_number       1
_symmetry_cell_setting            triclinic
loop_
_symmetry_equiv_pos_as_xyz
'x, y, z'
_cell_length_a     25.608
_cell_length_b     25.608
_cell_length_c     39.906
_cell_angle_alpha  90.000
_cell_angle_beta   90.000
_cell_angle_gamma  90.000
loop_
_atom_site_label
_atom_site_type_symbol
_atom_site_fract_x
_atom_site_fract_y
_atom_site_fract_z
_atom_type_partial_charge
Gd0 Gd 0.29871 0.02016 0.65997 0.00000
Gd1 Gd 0.35484 0.15957 0.60846 0.00000
C2 C 0.25707 0.91767 0.64701 0.00000
O3 O 0.31906 0.20840 0.56455 0.00000
C4 C 0.30001 0.05038 0.57557 0.00000
C5 C 0.31242 0.20474 0.53350 0.00000
C6 C 0.35471 0.13025 0.69197 0.00000
O7 O 0.34394 0.18314 0.51365 0.00000
O8 O 0.36461 0.15555 0.66604 0.00000
C9 C 0.41943 0.04734 0.62567 0.00000
O10 O 0.29105 0.02625 0.60195 0.00000
O11 O 0.32896 0.08891 0.69327 0.00000
O12 O 0.32537 0.09203 0.57297 0.00000
O13 O 0.22573 0.95505 0.64466 0.00000
O14 O 0.22783 0.07759 0.65490 0.00000
O15 O 0.27240 0.13883 0.62797 0.00000
O16 O 0.38433 0.02459 0.64115 0.00000
O17 O 0.41726 0.09353 0.61540 0.00000
O18 O 0.30502 0.92580 0.65164 0.00000
C19 C 0.23267 0.12282 0.64262 0.00000
Gd20 Gd 0.97984 0.29871 0.65997 0.00000
Gd21 Gd 0.84043 0.35484 0.60846 0.00000
C22 C 0.08233 0.25707 0.64701 0.00000
O23 O 0.79160 0.31906 0.56455 0.00000
C24 C 0.94962 0.30001 0.57557 0.00000
C25 C 0.79526 0.31242 0.53350 0.00000
C26 C 0.86975 0.35471 0.69197 0.00000
O27 O 0.81686 0.34394 0.51365 0.00000
O28 O 0.84445 0.36461 0.66604 0.00000
C29 C 0.95266 0.41943 0.62567 0.00000
O30 O 0.97375 0.29105 0.60195 0.00000
O31 O 0.91108 0.32896 0.69327 0.00000
O32 O 0.90797 0.32537 0.57297 0.00000
O33 O 0.04495 0.22573 0.64466 0.00000
O34 O 0.92241 0.22783 0.65490 0.00000
O35 O 0.86117 0.27240 0.62797 0.00000
O36 O 0.97541 0.38433 0.64115 0.00000
O37 O 0.90647 0.41726 0.61540 0.00000
O38 O 0.07420 0.30502 0.65164 0.00000
C39 C 0.87718 0.23267 0.64262 0.00000
Gd40 Gd 0.70129 0.02016 0.34003 0.00000
Gd41 Gd 0.64516 0.15957 0.39154 0.00000
C42 C 0.74293 0.91767 0.35299 0.00000
O43 O 0.68094 0.20840 0.43545 0.00000
C44 C 0.69999 0.05038 0.42443 0.00000
C45 C 0.68758 0.20474 0.46650 0.00000
C46 C 0.64529 0.13025 0.30803 0.00000
O47 O 0.65606 0.18314 0.48635 0.00000
O48 O 0.63539 0.15555 0.33396 0.00000
C49 C 0.58057 0.04734 0.37433 0.00000
O50 O 0.70895 0.02625 0.39805 0.00000
O51 O 0.67104 0.08891 0.30673 0.00000
O52 O 0.67463 0.09203 0.42703 0.00000
O53 O 0.77427 0.95505 0.35534 0.00000
O54 O 0.77216 0.07759 0.34510 0.00000
O55 O 0.72760 0.13883 0.37203 0.00000
O56 O 0.61567 0.02459 0.35885 0.00000
O57 O 0.58274 0.09353 0.38460 0.00000
O58 O 0.69498 0.92580 0.34836 0.00000
C59 C 0.76733 0.12282 0.35738 0.00000
Gd60 Gd 0.47984 0.79871 0.15997 0.00000
Gd61 Gd 0.34043 0.85484 0.10846 0.00000
C62 C 0.58233 0.75707 0.14701 0.00000
O63 O 0.29160 0.81906 0.06455 0.00000
C64 C 0.44962 0.80001 0.07557 0.00000
C65 C 0.29526 0.81242 0.03350 0.00000
C66 C 0.36975 0.85471 0.19197 0.00000
O67 O 0.31686 0.84394 0.01365 0.00000
O68 O 0.34445 0.86461 0.16604 0.00000
C69 C 0.45266 0.91943 0.12567 0.00000
O70 O 0.47375 0.79105 0.10195 0.00000
O71 O 0.41109 0.82896 0.19327 0.00000
O72 O 0.40797 0.82537 0.07297 0.00000
O73 O 0.54495 0.72573 0.14466 0.00000
O74 O 0.42241 0.72784 0.15490 0.00000
O75 O 0.36117 0.77240 0.12797 0.00000
O76 O 0.47541 0.88433 0.14115 0.00000
O77 O 0.40647 0.91726 0.11540 0.00000
O78 O 0.57420 0.80502 0.15164 0.00000
C79 C 0.37718 0.73267 0.14262 0.00000
Gd80 Gd 0.20129 0.52016 0.84003 0.00000
Gd81 Gd 0.14516 0.65957 0.89154 0.00000
C82 C 0.24293 0.41767 0.85299 0.00000
O83 O 0.18094 0.70840 0.93545 0.00000
C84 C 0.19999 0.55038 0.92443 0.00000
C85 C 0.18758 0.70474 0.96650 0.00000
C86 C 0.14529 0.63025 0.80803 0.00000
O87 O 0.15606 0.68314 0.98635 0.00000
O88 O 0.13539 0.65555 0.83396 0.00000
C89 C 0.08057 0.54734 0.87433 0.00000
O90 O 0.20895 0.52625 0.89805 0.00000
O91 O 0.17104 0.58892 0.80673 0.00000
O92 O 0.17463 0.59203 0.92703 0.00000
O93 O 0.27427 0.45505 0.85534 0.00000
O94 O 0.27216 0.57759 0.84510 0.00000
O95 O 0.22760 0.63883 0.87203 0.00000
O96 O 0.11567 0.52459 0.85885 0.00000
O97 O 0.08274 0.59353 0.88460 0.00000
O98 O 0.19498 0.42580 0.84836 0.00000
C99 C 0.26733 0.62282 0.85738 0.00000
Gd100 Gd 0.52016 0.20129 0.15997 0.00000
Gd101 Gd 0.65957 0.14516 0.10846 0.00000
C102 C 0.41767 0.24293 0.14701 0.00000
O103 O 0.70840 0.18094 0.06455 0.00000
C104 C 0.55038 0.19999 0.07557 0.00000
C105 C 0.70474 0.18758 0.03350 0.00000
C106 C 0.63025 0.14529 0.19197 0.00000
O107 O 0.68314 0.15606 0.01365 0.00000
O108 O 0.65555 0.13539 0.16604 0.00000
C109 C 0.54734 0.08057 0.12567 0.00000
O110 O 0.52625 0.20895 0.10195 0.00000
O111 O 0.58892 0.17104 0.19327 0.00000
O112 O 0.59203 0.17463 0.07297 0.00000
O113 O 0.45505 0.27427 0.14466 0.00000
O114 O 0.57759 0.27217 0.15490 0.00000
O115 O 0.63883 0.22760 0.12797 0.00000
O116 O 0.52459 0.11567 0.14115 0.00000
O117 O 0.59353 0.08274 0.11540 0.00000
O118 O 0.42580 0.19498 0.15164 0.00000
C119 C 0.62282 0.26733 0.14262 0.00000
Gd120 Gd 0.79871 0.52016 0.15997 0.00000
Gd121 Gd 0.85484 0.65957 0.10846 0.00000
C122 C 0.75707 0.41767 0.14701 0.00000
O123 O 0.81906 0.70840 0.06455 0.00000
C124 C 0.80001 0.55038 0.07557 0.00000
C125 C 0.81242 0.70474 0.03350 0.00000
C126 C 0.85471 0.63025 0.19197 0.00000
O127 O 0.84394 0.68314 0.01365 0.00000
O128 O 0.86461 0.65555 0.16604 0.00000
C129 C 0.91943 0.54734 0.12567 0.00000
O130 O 0.79105 0.52625 0.10195 0.00000
O131 O 0.82896 0.58892 0.19327 0.00000
O132 O 0.82537 0.59203 0.07297 0.00000
O133 O 0.72573 0.45505 0.14466 0.00000
O134 O 0.72784 0.57759 0.15490 0.00000
O135 O 0.77240 0.63883 0.12797 0.00000
O136 O 0.88433 0.52459 0.14115 0.00000
O137 O 0.91726 0.59353 0.11540 0.00000
O138 O 0.80502 0.42580 0.15164 0.00000
C139 C 0.73268 0.62282 0.14262 0.00000
Gd140 Gd 0.20129 0.47984 0.15997 0.00000
Gd141 Gd 0.14516 0.34043 0.10846 0.00000
C142 C 0.24293 0.58233 0.14701 0.00000
O143 O 0.18094 0.29160 0.06455 0.00000
C144 C 0.19999 0.44962 0.07557 0.00000
C145 C 0.18758 0.29526 0.03350 0.00000
C146 C 0.14529 0.36975 0.19197 0.00000
O147 O 0.15606 0.31686 0.01365 0.00000
O148 O 0.13539 0.34445 0.16604 0.00000
C149 C 0.08057 0.45266 0.12567 0.00000
O150 O 0.20895 0.47375 0.10195 0.00000
O151 O 0.17104 0.41109 0.19327 0.00000
O152 O 0.17463 0.40797 0.07297 0.00000
O153 O 0.27427 0.54495 0.14466 0.00000
O154 O 0.27217 0.42241 0.15490 0.00000
O155 O 0.22760 0.36117 0.12797 0.00000
O156 O 0.11567 0.47541 0.14115 0.00000
O157 O 0.08274 0.40647 0.11540 0.00000
O158 O 0.19498 0.57420 0.15164 0.00000
C159 C 0.26733 0.37718 0.14262 0.00000
Gd160 Gd 0.47984 0.20129 0.84003 0.00000
Gd161 Gd 0.34043 0.14516 0.89154 0.00000
C162 C 0.58233 0.24293 0.85299 0.00000
O163 O 0.29160 0.18095 0.93545 0.00000
C164 C 0.44962 0.19999 0.92443 0.00000
C165 C 0.29526 0.18758 0.96650 0.00000
C166 C 0.36975 0.14529 0.80803 0.00000
O167 O 0.31686 0.15606 0.98635 0.00000
O168 O 0.34445 0.13539 0.83396 0.00000
C169 C 0.45266 0.08057 0.87433 0.00000
O170 O 0.47375 0.20895 0.89805 0.00000
O171 O 0.41109 0.17104 0.80673 0.00000
O172 O 0.40797 0.17463 0.92703 0.00000
O173 O 0.54495 0.27427 0.85534 0.00000
O174 O 0.42241 0.27217 0.84510 0.00000
O175 O 0.36117 0.22760 0.87203 0.00000
O176 O 0.47541 0.11567 0.85885 0.00000
O177 O 0.40647 0.08274 0.88460 0.00000
O178 O 0.57420 0.19498 0.84836 0.00000
C179 C 0.37718 0.26733 0.85738 0.00000
Gd180 Gd 0.79871 0.47984 0.84003 0.00000
Gd181 Gd 0.85484 0.34043 0.89154 0.00000
C182 C 0.75707 0.58233 0.85299 0.00000
O183 O 0.81906 0.29160 0.93545 0.00000
C184 C 0.80001 0.44962 0.92443 0.00000
C185 C 0.81242 0.29526 0.96650 0.00000
C186 C 0.85471 0.36975 0.80803 0.00000
O187 O 0.84394 0.31686 0.98635 0.00000
O188 O 0.86461 0.34445 0.83396 0.00000
C189 C 0.91943 0.45266 0.87433 0.00000
O190 O 0.79105 0.47375 0.89805 0.00000
O191 O 0.82896 0.41109 0.80673 0.00000
O192 O 0.82537 0.40797 0.92703 0.00000
O193 O 0.72573 0.54495 0.85534 0.00000
O194 O 0.72784 0.42241 0.84510 0.00000
O195 O 0.77240 0.36117 0.87203 0.00000
O196 O 0.88433 0.47541 0.85885 0.00000
O197 O 0.91726 0.40647 0.88460 0.00000
O198 O 0.80502 0.57420 0.84836 0.00000
C199 C 0.73267 0.37718 0.85738 0.00000
Gd200 Gd 0.52016 0.79871 0.84003 0.00000
Gd201 Gd 0.65957 0.85484 0.89154 0.00000
C202 C 0.41767 0.75707 0.85299 0.00000
O203 O 0.70840 0.81906 0.93545 0.00000
C204 C 0.55038 0.80001 0.92444 0.00000
C205 C 0.70474 0.81242 0.96650 0.00000
C206 C 0.63025 0.85471 0.80803 0.00000
O207 O 0.68314 0.84394 0.98635 0.00000
O208 O 0.65555 0.86461 0.83396 0.00000
C209 C 0.54734 0.91943 0.87433 0.00000
O210 O 0.52625 0.79105 0.89806 0.00000
O211 O 0.58891 0.82896 0.80673 0.00000
O212 O 0.59203 0.82537 0.92703 0.00000
O213 O 0.45505 0.72573 0.85534 0.00000
O214 O 0.57759 0.72784 0.84510 0.00000
O215 O 0.63883 0.77240 0.87203 0.00000
O216 O 0.52459 0.88433 0.85885 0.00000
O217 O 0.59353 0.91726 0.88460 0.00000
O218 O 0.42580 0.80502 0.84836 0.00000
C219 C 0.62282 0.73267 0.85738 0.00000
Gd220 Gd 0.70129 0.97984 0.65997 0.00000
Gd221 Gd 0.64516 0.84043 0.60846 0.00000
C222 C 0.74293 0.08233 0.64701 0.00000
O223 O 0.68094 0.79160 0.56455 0.00000
C224 C 0.69999 0.94962 0.57557 0.00000
C225 C 0.68758 0.79526 0.53350 0.00000
C226 C 0.64529 0.86975 0.69197 0.00000
O227 O 0.65606 0.81686 0.51365 0.00000
O228 O 0.63539 0.84445 0.66604 0.00000
C229 C 0.58057 0.95266 0.62567 0.00000
O230 O 0.70895 0.97375 0.60195 0.00000
O231 O 0.67104 0.91108 0.69327 0.00000
O232 O 0.67463 0.90797 0.57297 0.00000
O233 O 0.77427 0.04495 0.64466 0.00000
O234 O 0.77216 0.92241 0.65490 0.00000
O235 O 0.72760 0.86117 0.62797 0.00000
O236 O 0.61567 0.97541 0.64115 0.00000
O237 O 0.58274 0.90647 0.61540 0.00000
O238 O 0.69498 0.07420 0.65164 0.00000
C239 C 0.76733 0.87718 0.64262 0.00000
Gd240 Gd 0.02016 0.70129 0.65997 0.00000
Gd241 Gd 0.15957 0.64516 0.60846 0.00000
C242 C 0.91767 0.74293 0.64701 0.00000
O243 O 0.20840 0.68094 0.56455 0.00000
C244 C 0.05038 0.69999 0.57556 0.00000
C245 C 0.20474 0.68758 0.53350 0.00000
C246 C 0.13025 0.64529 0.69197 0.00000
O247 O 0.18314 0.65606 0.51365 0.00000
O248 O 0.15555 0.63539 0.66604 0.00000
C249 C 0.04734 0.58057 0.62567 0.00000
O250 O 0.02625 0.70895 0.60195 0.00000
O251 O 0.08891 0.67104 0.69327 0.00000
O252 O 0.09203 0.67463 0.57297 0.00000
O253 O 0.95505 0.77427 0.64466 0.00000
O254 O 0.07759 0.77216 0.65490 0.00000
O255 O 0.13883 0.72760 0.62797 0.00000
O256 O 0.02459 0.61567 0.64115 0.00000
O257 O 0.09353 0.58274 0.61540 0.00000
O258 O 0.92580 0.69498 0.65164 0.00000
C259 C 0.12282 0.76733 0.64262 0.00000
Gd260 Gd 0.97984 0.70129 0.34003 0.00000
Gd261 Gd 0.84043 0.64516 0.39154 0.00000
C262 C 0.08233 0.74293 0.35299 0.00000
O263 O 0.79160 0.68094 0.43545 0.00000
C264 C 0.94962 0.69999 0.42444 0.00000
C265 C 0.79526 0.68758 0.46650 0.00000
C266 C 0.86975 0.64529 0.30803 0.00000
O267 O 0.81686 0.65606 0.48635 0.00000
O268 O 0.84445 0.63539 0.33396 0.00000
C269 C 0.95266 0.58057 0.37433 0.00000
O270 O 0.97375 0.70895 0.39806 0.00000
O271 O 0.91109 0.67104 0.30673 0.00000
O272 O 0.90797 0.67463 0.42703 0.00000
O273 O 0.04495 0.77427 0.35534 0.00000
O274 O 0.92241 0.77216 0.34510 0.00000
O275 O 0.86117 0.72760 0.37203 0.00000
O276 O 0.97541 0.61567 0.35885 0.00000
O277 O 0.90647 0.58274 0.38460 0.00000
O278 O 0.07420 0.69498 0.34836 0.00000
C279 C 0.87718 0.76733 0.35738 0.00000
Gd280 Gd 0.29871 0.97984 0.34003 0.00000
Gd281 Gd 0.35484 0.84043 0.39154 0.00000
C282 C 0.25707 0.08233 0.35299 0.00000
O283 O 0.31906 0.79160 0.43545 0.00000
C284 C 0.30001 0.94962 0.42443 0.00000
C285 C 0.31242 0.79526 0.46650 0.00000
C286 C 0.35471 0.86975 0.30803 0.00000
O287 O 0.34394 0.81686 0.48635 0.00000
O288 O 0.36461 0.84445 0.33396 0.00000
C289 C 0.41943 0.95266 0.37433 0.00000
O290 O 0.29105 0.97375 0.39805 0.00000
O291 O 0.32896 0.91108 0.30673 0.00000
O292 O 0.32537 0.90796 0.42703 0.00000
O293 O 0.22573 0.04495 0.35534 0.00000
O294 O 0.22783 0.92241 0.34510 0.00000
O295 O 0.27240 0.86117 0.37203 0.00000
O296 O 0.38433 0.97541 0.35885 0.00000
O297 O 0.41726 0.90647 0.38460 0.00000
O298 O 0.30502 0.07420 0.34836 0.00000
C299 C 0.23267 0.87718 0.35738 0.00000
Gd300 Gd 0.02016 0.29871 0.34003 0.00000
Gd301 Gd 0.15957 0.35484 0.39154 0.00000
C302 C 0.91767 0.25707 0.35299 0.00000
O303 O 0.20840 0.31905 0.43545 0.00000
C304 C 0.05038 0.30001 0.42444 0.00000
C305 C 0.20474 0.31242 0.46650 0.00000
C306 C 0.13025 0.35471 0.30803 0.00000
O307 O 0.18314 0.34394 0.48635 0.00000
O308 O 0.15555 0.36461 0.33396 0.00000
C309 C 0.04734 0.41943 0.37433 0.00000
O310 O 0.02625 0.29105 0.39806 0.00000
O311 O 0.08891 0.32896 0.30673 0.00000
O312 O 0.09203 0.32537 0.42703 0.00000
O313 O 0.95505 0.22573 0.35534 0.00000
O314 O 0.07759 0.22783 0.34510 0.00000
O315 O 0.13883 0.27240 0.37203 0.00000
O316 O 0.02459 0.38433 0.35885 0.00000
O317 O 0.09353 0.41726 0.38460 0.00000
O318 O 0.92580 0.30502 0.34836 0.00000
C319 C 0.12282 0.23267 0.35738 0.00000
C320 C 0.41696 0.14782 0.72658 0.00000
C321 C 0.42293 0.15457 0.76338 0.00000
C322 C 0.45661 0.15147 0.70291 0.00000
C323 C 0.51017 0.16122 0.70713 0.00000
C324 C 0.53765 0.17122 0.73680 0.00000
C325 C 0.51927 0.17339 0.76951 0.00000
C326 C 0.46916 0.16604 0.78073 0.00000
H327 H 0.30294 0.13548 0.75439 0.00000
H328 H 0.44605 0.14663 0.68087 0.00000
H329 H 0.53003 0.16104 0.68760 0.00000
H330 H 0.57327 0.17725 0.73419 0.00000
H331 H 0.54403 0.18073 0.78585 0.00000
H332 H 0.46520 0.16920 0.80382 0.00000
C333 C 0.37227 0.14925 0.77694 0.00000
C334 C 0.33864 0.14059 0.75167 0.00000
C335 C 0.36432 0.14029 0.72060 0.00000
C336 C 0.81408 0.31393 0.76966 0.00000
C337 C 0.81761 0.30890 0.73261 0.00000
C338 C 0.78208 0.28474 0.79064 0.00000
C339 C 0.74693 0.24434 0.78304 0.00000
C340 C 0.73396 0.22361 0.75164 0.00000
C341 C 0.75287 0.23708 0.72019 0.00000
C342 C 0.78934 0.27433 0.71227 0.00000
H343 H 0.89425 0.40082 0.74881 0.00000
H344 H 0.78434 0.29322 0.81322 0.00000
H345 H 0.73000 0.22941 0.80130 0.00000
H346 H 0.70916 0.19703 0.75192 0.00000
H347 H 0.73909 0.21851 0.70226 0.00000
H348 H 0.79654 0.27710 0.68948 0.00000
C349 C 0.85350 0.34748 0.72216 0.00000
C350 C 0.87012 0.37369 0.74933 0.00000
C351 C 0.84634 0.35490 0.77863 0.00000
C352 C 0.65729 0.08521 0.22615 0.00000
C353 C 0.66414 0.07949 0.26296 0.00000
C354 C 0.66748 0.04716 0.20219 0.00000
C355 C 0.68529 0.99564 0.20607 0.00000
C356 C 0.69881 0.96934 0.23560 0.00000
C357 C 0.69745 0.98707 0.26848 0.00000
C358 C 0.68224 0.03517 0.28004 0.00000
H359 H 0.62697 0.19531 0.25479 0.00000
H360 H 0.66152 0.05736 0.18020 0.00000
H361 H 0.68856 0.97646 0.18638 0.00000
H362 H 0.71031 0.93514 0.23276 0.00000
H363 H 0.70819 0.96335 0.28468 0.00000
H364 H 0.68429 0.03903 0.30319 0.00000
C365 C 0.65080 0.12840 0.27689 0.00000
C366 C 0.63757 0.16088 0.25182 0.00000
C367 C 0.64185 0.13619 0.22054 0.00000
C368 C 0.37946 0.91846 0.26738 0.00000
C369 C 0.38636 0.91359 0.23052 0.00000
C370 C 0.39375 0.96110 0.28688 0.00000
C371 C 0.41659 0.00878 0.27752 0.00000
C372 C 0.43229 0.02535 0.24562 0.00000
C373 C 0.42872 0.99990 0.21516 0.00000
C374 C 0.40859 0.95068 0.20895 0.00000
H375 H 0.33785 0.80597 0.25105 0.00000
H376 H 0.38709 0.95754 0.30963 0.00000
H377 H 0.42204 0.03249 0.29484 0.00000
H378 H 0.44721 0.05847 0.24474 0.00000
H379 H 0.44157 0.01723 0.19666 0.00000
H380 H 0.40993 0.94054 0.18657 0.00000
C381 C 0.36798 0.86329 0.22208 0.00000
C382 C 0.35189 0.83944 0.25026 0.00000
C383 C 0.35906 0.87153 0.27840 0.00000
C384 C 0.11661 0.58332 0.76771 0.00000
C385 C 0.10970 0.58830 0.73086 0.00000
C386 C 0.09962 0.54195 0.78744 0.00000
C387 C 0.07346 0.49587 0.77837 0.00000
C388 C 0.05634 0.48011 0.74660 0.00000
C389 C 0.06138 0.50550 0.71602 0.00000
C390 C 0.08474 0.55263 0.70953 0.00000
H391 H 0.16571 0.69251 0.75075 0.00000
H392 H 0.10674 0.54525 0.81015 0.00000
H393 H 0.06656 0.47275 0.79581 0.00000
H394 H 0.03917 0.44809 0.74591 0.00000
H395 H 0.04715 0.48839 0.69764 0.00000
H396 H 0.08388 0.56263 0.68711 0.00000
C397 C 0.13140 0.63714 0.72214 0.00000
C398 C 0.14938 0.66009 0.75016 0.00000
C399 C 0.14031 0.62884 0.77846 0.00000
C400 C 0.88923 0.69980 0.26447 0.00000
C401 C 0.88570 0.69478 0.22742 0.00000
C402 C 0.91236 0.74071 0.28189 0.00000
C403 C 0.93664 0.78621 0.26991 0.00000
C404 C 0.94503 0.80166 0.23668 0.00000
C405 C 0.93101 0.77650 0.20719 0.00000
C406 C 0.90515 0.72993 0.20353 0.00000
H407 H 0.83373 0.59181 0.25353 0.00000
H408 H 0.91158 0.73749 0.30505 0.00000
H409 H 0.94878 0.80910 0.28625 0.00000
H410 H 0.96246 0.83329 0.23400 0.00000
H411 H 0.94031 0.79334 0.18746 0.00000
H412 H 0.89955 0.71999 0.18139 0.00000
C413 C 0.86081 0.64647 0.22138 0.00000
C414 C 0.85037 0.62385 0.25104 0.00000
C415 C 0.86786 0.65480 0.27781 0.00000
C416 C 0.17868 0.30846 0.22960 0.00000
C417 C 0.17516 0.30319 0.26663 0.00000
C418 C 0.20572 0.27542 0.20810 0.00000
C419 C 0.23479 0.23020 0.21507 0.00000
C420 C 0.24522 0.20712 0.24618 0.00000
C421 C 0.22905 0.22249 0.27791 0.00000
C422 C 0.19851 0.26444 0.28644 0.00000
H423 H 0.11234 0.40557 0.25185 0.00000
H424 H 0.20429 0.28463 0.18562 0.00000
H425 H 0.24904 0.21337 0.19654 0.00000
H426 H 0.26590 0.17724 0.24547 0.00000
H427 H 0.24034 0.20173 0.29556 0.00000
H428 H 0.19222 0.26773 0.30932 0.00000
C429 C 0.14544 0.34631 0.27771 0.00000
C430 C 0.13228 0.37525 0.25090 0.00000
C431 C 0.15253 0.35386 0.22124 0.00000
C432 C 0.62832 0.92107 0.73323 0.00000
C433 C 0.62149 0.91642 0.77010 0.00000
C434 C 0.61941 0.96559 0.71415 0.00000
C435 C 0.60317 0.01566 0.72403 0.00000
C436 C 0.59033 0.03352 0.75617 0.00000
C437 C 0.59100 0.00670 0.78642 0.00000
C438 C 0.60468 0.95567 0.79212 0.00000
H439 H 0.65513 0.80380 0.74842 0.00000
H440 H 0.62515 0.96165 0.69132 0.00000
H441 H 0.60057 0.04022 0.70693 0.00000
H442 H 0.57989 0.06829 0.75741 0.00000
H443 H 0.58092 0.02572 0.80514 0.00000
H444 H 0.60241 0.94535 0.81443 0.00000
C445 C 0.63326 0.86398 0.77803 0.00000
C446 C 0.64560 0.83880 0.74955 0.00000
C447 C 0.64221 0.87209 0.72170 0.00000
C448 C 0.50909 0.06818 0.62662 0.00000
C449 C 0.55797 0.03688 0.62742 0.00000
C450 C 0.50577 0.12198 0.62257 0.00000
C451 C 0.54539 0.15920 0.61791 0.00000
C452 C 0.59954 0.15160 0.61695 0.00000
C453 C 0.62780 0.10553 0.61990 0.00000
C454 C 0.60916 0.05581 0.62445 0.00000
H455 H 0.47043 0.95358 0.63951 0.00000
H456 H 0.47210 0.13541 0.62296 0.00000
H457 H 0.53414 0.19347 0.61511 0.00000
H458 H 0.61936 0.18170 0.61389 0.00000
H459 H 0.66386 0.10882 0.61863 0.00000
H460 H 0.63493 0.03027 0.62578 0.00000
C461 C 0.54225 0.98479 0.63317 0.00000
C462 C 0.48993 0.98368 0.63588 0.00000
C463 C 0.46847 0.03385 0.63256 0.00000
C464 C 0.98293 0.54798 0.66335 0.00000
C465 C 0.94923 0.50070 0.66323 0.00000
C466 C 0.97720 0.59114 0.68414 0.00000
C467 C 0.94056 0.60096 0.70956 0.00000
C468 C 0.89883 0.56966 0.72011 0.00000
C469 C 0.88342 0.52088 0.70855 0.00000
C470 C 0.90577 0.49128 0.68374 0.00000
H471 H 0.02891 0.47915 0.60531 0.00000
H472 H 0.00141 0.61760 0.68071 0.00000
H473 H 0.94455 0.63247 0.72087 0.00000
H474 H 0.87859 0.58353 0.73732 0.00000
H475 H 0.85432 0.50649 0.71892 0.00000
H476 H 0.88922 0.45948 0.67987 0.00000
C477 C 0.96870 0.46851 0.63735 0.00000
C478 C 0.00940 0.49285 0.62289 0.00000
C479 C 0.01867 0.54168 0.63771 0.00000
C480 C 0.44561 0.02665 0.34513 0.00000
C481 C 0.49295 0.06025 0.34555 0.00000
C482 C 0.39807 0.03892 0.33029 0.00000
C483 C 0.38292 0.08352 0.31227 0.00000
C484 C 0.41205 0.12849 0.30521 0.00000
C485 C 0.46331 0.14021 0.31377 0.00000
C486 C 0.49811 0.11008 0.33135 0.00000
H487 H 0.52674 0.96229 0.38725 0.00000
H488 H 0.37232 0.01365 0.33262 0.00000
H489 H 0.34899 0.08314 0.30394 0.00000
H490 H 0.39457 0.15412 0.29305 0.00000
H491 H 0.47554 0.17251 0.30668 0.00000
H492 H 0.53075 0.12536 0.33436 0.00000
C493 C 0.53062 0.03258 0.36433 0.00000
C494 C 0.50932 0.98735 0.37461 0.00000
C495 C 0.45735 0.98277 0.36384 0.00000
C496 C 0.51459 0.02678 0.09293 0.00000
C497 C 0.48345 0.97779 0.09227 0.00000
C498 C 0.53167 0.05469 0.06514 0.00000
C499 C 0.52395 0.04514 0.03084 0.00000
C500 C 0.49761 0.00354 0.01556 0.00000
C501 C 0.47192 0.96164 0.03028 0.00000
C502 C 0.46606 0.95092 0.06375 0.00000
H503 H 0.50242 0.99688 0.16883 0.00000
H504 H 0.55117 0.08429 0.07001 0.00000
H505 H 0.53827 0.06974 0.01635 0.00000
H506 H 0.49728 0.00409 0.99223 0.00000
H507 H 0.45682 0.93789 0.01560 0.00000
H508 H 0.44730 0.92061 0.06829 0.00000
C509 C 0.47702 0.96295 0.12610 0.00000
C510 C 0.50148 0.99816 0.14554 0.00000
C511 C 0.52549 0.03712 0.12620 0.00000
C512 C 0.95065 0.51912 0.83810 0.00000
C513 C 0.99793 0.55281 0.83828 0.00000
C514 C 0.90654 0.52626 0.81833 0.00000
C515 C 0.89558 0.56461 0.79417 0.00000
C516 C 0.92640 0.60705 0.78423 0.00000
C517 C 0.97571 0.62168 0.79528 0.00000
C518 C 0.00643 0.59766 0.81885 0.00000
H519 H 0.02211 0.46922 0.89343 0.00000
H520 H 0.88024 0.50182 0.82156 0.00000
H521 H 0.86355 0.56139 0.78336 0.00000
H522 H 0.91175 0.62846 0.76788 0.00000
H523 H 0.98962 0.65148 0.78548 0.00000
H524 H 0.03840 0.61394 0.82258 0.00000
C525 C 0.03129 0.53159 0.86294 0.00000
C526 C 0.00761 0.48992 0.87669 0.00000
C527 C 0.95811 0.48165 0.86256 0.00000
C528 C 0.99597 0.43938 0.11134 0.00000
C529 C 0.94687 0.47035 0.11177 0.00000
C530 C 0.00268 0.39063 0.09665 0.00000
C531 C 0.96711 0.35948 0.07881 0.00000
C532 C 0.91440 0.36923 0.07184 0.00000
C533 C 0.88408 0.41221 0.08032 0.00000
C534 C 0.89876 0.45601 0.09773 0.00000
H535 H 0.02478 0.53925 0.15307 0.00000
H536 H 0.03586 0.37648 0.09895 0.00000
H537 H 0.98036 0.32819 0.07055 0.00000
H538 H 0.89730 0.34320 0.05980 0.00000
H539 H 0.84951 0.41116 0.07331 0.00000
H540 H 0.87220 0.48038 0.10071 0.00000
C541 C 0.95819 0.51587 0.13038 0.00000
C542 C 0.00818 0.51350 0.14055 0.00000
C543 C 0.03217 0.46711 0.12988 0.00000
C544 C 0.55569 0.00010 0.89367 0.00000
C545 C 0.52479 0.04988 0.89341 0.00000
C546 C 0.60108 0.99178 0.91188 0.00000
C547 C 0.62815 0.02461 0.93408 0.00000
C548 C 0.61678 0.07623 0.94311 0.00000
C549 C 0.57571 0.10783 0.93283 0.00000
C550 C 0.53589 0.09582 0.91117 0.00000
H551 H 0.46529 0.97827 0.84252 0.00000
H552 H 0.61578 0.95895 0.90894 0.00000
H553 H 0.65758 0.01012 0.94411 0.00000
H554 H 0.64005 0.09148 0.95812 0.00000
H555 H 0.57514 0.14131 0.94177 0.00000
H556 H 0.51218 0.12282 0.90766 0.00000
C557 C 0.48349 0.04139 0.87060 0.00000
C558 C 0.48819 0.99295 0.85796 0.00000
C559 C 0.53216 0.96735 0.87103 0.00000
C560 C 0.98423 0.45289 0.33581 0.00000
C561 C 0.95053 0.50017 0.33590 0.00000
C562 C 0.97939 0.41032 0.31443 0.00000
C563 C 0.94384 0.40124 0.28827 0.00000
C564 C 0.90257 0.43284 0.27736 0.00000
C565 C 0.88666 0.48129 0.28922 0.00000
C566 C 0.90794 0.51018 0.31475 0.00000
H567 H 0.02772 0.52006 0.39542 0.00000
H568 H 0.00345 0.38377 0.31797 0.00000
H569 H 0.94832 0.37005 0.27667 0.00000
H570 H 0.88306 0.41946 0.25965 0.00000
H571 H 0.85801 0.49597 0.27851 0.00000
H572 H 0.89123 0.54186 0.31870 0.00000
C573 C 0.96889 0.53161 0.36247 0.00000
C574 C 0.00897 0.50686 0.37735 0.00000
C575 C 0.01887 0.45845 0.36213 0.00000
C576 C 0.10932 0.18882 0.67093 0.00000
C577 C 0.14598 0.14411 0.66755 0.00000
C578 C 0.06815 0.19238 0.69350 0.00000
C579 C 0.05140 0.15704 0.71818 0.00000
C580 C 0.07153 0.10765 0.72594 0.00000
C581 C 0.11340 0.08133 0.71165 0.00000
C582 C 0.14550 0.09770 0.68621 0.00000
H583 H 0.18238 0.22117 0.61126 0.00000
H584 H 0.04872 0.22291 0.69208 0.00000
H585 H 0.02313 0.16791 0.73106 0.00000
H586 H 0.05442 0.08999 0.74313 0.00000
H587 H 0.12055 0.04851 0.72042 0.00000
H588 H 0.17142 0.07391 0.68036 0.00000
C589 C 0.17973 0.15715 0.64084 0.00000
C590 C 0.16567 0.20414 0.62882 0.00000
C591 C 0.12244 0.22423 0.64618 0.00000
C592 C 0.86214 0.13303 0.61997 0.00000
C593 C 0.81956 0.09400 0.62378 0.00000
C594 C 0.91131 0.12370 0.60650 0.00000
C595 C 0.93268 0.07767 0.59315 0.00000
C596 C 0.90986 0.02811 0.59069 0.00000
C597 C 0.86032 0.01195 0.60036 0.00000
C598 C 0.82137 0.04111 0.61474 0.00000
H599 H 0.77206 0.19552 0.65520 0.00000
H600 H 0.93348 0.15239 0.60626 0.00000
H601 H 0.96651 0.08051 0.58486 0.00000
H602 H 0.93089 0.00238 0.58123 0.00000
H603 H 0.85260 0.97701 0.59660 0.00000
H604 H 0.79091 0.02258 0.61927 0.00000
C605 C 0.77805 0.12066 0.63959 0.00000
C606 C 0.79297 0.17023 0.64521 0.00000
C607 C 0.84422 0.17896 0.63408 0.00000
C608 C 0.77565 0.21397 0.36144 0.00000
C609 C 0.81292 0.25833 0.35906 0.00000
C610 C 0.72155 0.21779 0.36273 0.00000
C611 C 0.68920 0.26204 0.36172 0.00000
C612 C 0.70352 0.31476 0.35992 0.00000
C613 C 0.75306 0.33669 0.35825 0.00000
C614 C 0.80039 0.31162 0.35789 0.00000
H615 H 0.88590 0.16037 0.36298 0.00000
H616 H 0.70407 0.18615 0.36450 0.00000
H617 H 0.65348 0.25543 0.36234 0.00000
H618 H 0.67592 0.33841 0.35983 0.00000
H619 H 0.75428 0.37290 0.35725 0.00000
H620 H 0.82912 0.33380 0.35665 0.00000
C621 C 0.86325 0.23581 0.35965 0.00000
C622 C 0.85811 0.18373 0.36231 0.00000
C623 C 0.80536 0.16908 0.36400 0.00000
C624 C 0.33390 0.66104 0.09873 0.00000
C625 C 0.29132 0.62183 0.10164 0.00000
C626 C 0.36368 0.67087 0.07031 0.00000
C627 C 0.36129 0.64824 0.03829 0.00000
C628 C 0.32845 0.60830 0.02683 0.00000
C629 C 0.28960 0.58142 0.04392 0.00000
C630 C 0.27383 0.58774 0.07652 0.00000
H631 H 0.29773 0.66990 0.17369 0.00000
H632 H 0.38908 0.69642 0.07288 0.00000
H633 H 0.38466 0.66155 0.02262 0.00000
H634 H 0.33339 0.59841 0.00460 0.00000
H635 H 0.27209 0.55597 0.03174 0.00000
H636 H 0.24689 0.56560 0.08309 0.00000
C637 C 0.27384 0.62458 0.13516 0.00000
C638 C 0.30226 0.66083 0.15131 0.00000
C639 C 0.33976 0.68325 0.13008 0.00000
C640 C 0.34823 0.65744 0.89803 0.00000
C641 C 0.38748 0.69994 0.89489 0.00000
C642 C 0.34479 0.62168 0.92413 0.00000
C643 C 0.37526 0.61672 0.95322 0.00000
C644 C 0.41855 0.64635 0.96315 0.00000
C645 C 0.44194 0.68843 0.94713 0.00000
C646 C 0.42798 0.71138 0.91739 0.00000
H647 H 0.32171 0.71008 0.82904 0.00000
H648 H 0.31816 0.59730 0.92203 0.00000
H649 H 0.36536 0.59018 0.96782 0.00000
H650 H 0.43376 0.63643 0.98336 0.00000
H651 H 0.47066 0.70285 0.95792 0.00000
H652 H 0.44900 0.73935 0.91107 0.00000
C653 C 0.37686 0.72476 0.86403 0.00000
C654 C 0.33616 0.70051 0.84952 0.00000
C655 C 0.31824 0.65882 0.86924 0.00000
C656 C 0.70759 0.36722 0.18002 0.00000
C657 C 0.66291 0.33040 0.17721 0.00000
C658 C 0.72405 0.39222 0.20907 0.00000
C659 C 0.70453 0.38909 0.24189 0.00000
C660 C 0.66185 0.36038 0.25382 0.00000
C661 C 0.62845 0.32729 0.23647 0.00000
C662 C 0.62938 0.31458 0.20308 0.00000
H663 H 0.70414 0.33879 0.10351 0.00000
H664 H 0.75242 0.41440 0.20636 0.00000
H665 H 0.72233 0.40876 0.25783 0.00000
H666 H 0.65492 0.36400 0.27660 0.00000
H667 H 0.60218 0.31182 0.24907 0.00000
H668 H 0.60328 0.29148 0.19648 0.00000
C669 C 0.66000 0.31655 0.14301 0.00000
C670 C 0.69800 0.34190 0.12640 0.00000
C671 C 0.72722 0.37374 0.14802 0.00000
C672 C 0.72061 0.70762 0.15564 0.00000
C673 C 0.68375 0.75227 0.15838 0.00000
C674 C 0.77232 0.70720 0.16622 0.00000
C675 C 0.80190 0.74636 0.18192 0.00000
C676 C 0.78691 0.79730 0.19036 0.00000
C677 C 0.73906 0.82183 0.18582 0.00000
C678 C 0.69444 0.80172 0.17185 0.00000
H679 H 0.61786 0.66640 0.12183 0.00000
H680 H 0.79006 0.67616 0.16234 0.00000
H681 H 0.83601 0.73724 0.18742 0.00000
H682 H 0.81269 0.81754 0.20046 0.00000
H683 H 0.73703 0.85618 0.19317 0.00000
H684 H 0.66646 0.82489 0.17121 0.00000
C685 C 0.63677 0.73527 0.14341 0.00000
C686 C 0.64352 0.68610 0.13243 0.00000
C687 C 0.69434 0.66828 0.13896 0.00000
C688 C 0.28804 0.30187 0.16640 0.00000
C689 C 0.32473 0.25713 0.16950 0.00000
C690 C 0.24220 0.30876 0.18451 0.00000
C691 C 0.21974 0.27750 0.20958 0.00000
C692 C 0.23751 0.22979 0.22241 0.00000
C693 C 0.28198 0.20161 0.21403 0.00000
C694 C 0.31965 0.21401 0.19092 0.00000
H695 H 0.37413 0.32491 0.11237 0.00000
H696 H 0.22354 0.33874 0.17925 0.00000
H697 H 0.18893 0.29018 0.21888 0.00000
H698 H 0.21654 0.21489 0.23889 0.00000
H699 H 0.28681 0.17045 0.22552 0.00000
H700 H 0.34644 0.18960 0.18917 0.00000
C701 C 0.36429 0.26602 0.14551 0.00000
C702 C 0.35347 0.31069 0.12923 0.00000
C703 C 0.30691 0.33316 0.14091 0.00000
C704 C 0.25507 0.33948 0.89260 0.00000
C705 C 0.29755 0.30023 0.89587 0.00000
C706 C 0.21206 0.34442 0.91360 0.00000
C707 C 0.19820 0.31580 0.94227 0.00000
C708 C 0.22407 0.27329 0.95685 0.00000
C709 C 0.27012 0.24906 0.94703 0.00000
C710 C 0.30175 0.26123 0.92041 0.00000
H711 H 0.32782 0.36183 0.83092 0.00000
H712 H 0.18890 0.37080 0.90779 0.00000
H713 H 0.16777 0.32650 0.95299 0.00000
H714 H 0.20811 0.25932 0.97580 0.00000
H715 H 0.28086 0.22111 0.96016 0.00000
H716 H 0.33102 0.23995 0.91828 0.00000
C717 C 0.33134 0.30900 0.86848 0.00000
C718 C 0.31214 0.34866 0.85016 0.00000
C719 C 0.26532 0.36763 0.86379 0.00000
C720 C 0.62227 0.30110 0.82256 0.00000
C721 C 0.65898 0.34583 0.82560 0.00000
C722 C 0.59000 0.29062 0.79537 0.00000
C723 C 0.58418 0.31749 0.76492 0.00000
C724 C 0.60899 0.36334 0.75430 0.00000
C725 C 0.64598 0.39349 0.77083 0.00000
C726 C 0.66742 0.38538 0.80190 0.00000
H727 H 0.67066 0.28801 0.89436 0.00000
H728 H 0.56908 0.26123 0.79769 0.00000
H729 H 0.56069 0.30287 0.74981 0.00000
H730 H 0.59929 0.37526 0.73315 0.00000
H731 H 0.65768 0.42284 0.75941 0.00000
H732 H 0.69176 0.41044 0.80834 0.00000
C733 C 0.68173 0.34137 0.85771 0.00000
C734 C 0.66145 0.29920 0.87299 0.00000
C735 C 0.62452 0.27419 0.85255 0.00000
C736 C 0.71101 0.72317 0.85080 0.00000
C737 C 0.75557 0.68617 0.84821 0.00000
C738 C 0.71288 0.77657 0.84470 0.00000
C739 C 0.75482 0.80817 0.83455 0.00000
C740 C 0.80680 0.79387 0.82865 0.00000
C741 C 0.82999 0.74496 0.83087 0.00000
C742 C 0.80718 0.69836 0.83942 0.00000
H743 H 0.66324 0.61542 0.87246 0.00000
H744 H 0.68150 0.79407 0.84778 0.00000
H745 H 0.74700 0.84330 0.83135 0.00000
H746 H 0.82891 0.82100 0.82234 0.00000
H747 H 0.86541 0.74365 0.82594 0.00000
H748 H 0.82987 0.66997 0.83937 0.00000
C749 C 0.73565 0.63695 0.85777 0.00000
C750 C 0.68490 0.64254 0.86561 0.00000
C751 C 0.66875 0.69464 0.86217 0.00000
C752 C 0.87099 0.79557 0.67933 0.00000
C753 C 0.83421 0.84027 0.67644 0.00000
C754 C 0.89859 0.78128 0.70788 0.00000
C755 C 0.89868 0.80348 0.74007 0.00000
C756 C 0.87138 0.84733 0.75162 0.00000
C757 C 0.83689 0.87955 0.73447 0.00000
C758 C 0.82105 0.87600 0.70171 0.00000
H759 H 0.83541 0.79301 0.60406 0.00000
H760 H 0.92032 0.75254 0.70529 0.00000
H761 H 0.91971 0.78683 0.75579 0.00000
H762 H 0.87718 0.85608 0.77395 0.00000
H763 H 0.82278 0.90694 0.74673 0.00000
H764 H 0.79751 0.90173 0.69514 0.00000
C765 C 0.81717 0.84051 0.64279 0.00000
C766 C 0.84070 0.80099 0.62654 0.00000
C767 C 0.87437 0.77330 0.64785 0.00000
C768 C 0.18510 0.80139 0.67411 0.00000
C769 C 0.22979 0.83806 0.67759 0.00000
C770 C 0.16924 0.76472 0.69767 0.00000
C771 C 0.18950 0.75348 0.72957 0.00000
C772 C 0.23251 0.77595 0.74577 0.00000
C773 C 0.26558 0.81534 0.73473 0.00000
C774 C 0.26392 0.84207 0.70496 0.00000
H775 H 0.18689 0.86197 0.60571 0.00000
H776 H 0.14077 0.74454 0.69137 0.00000
H777 H 0.17202 0.72763 0.74152 0.00000
H778 H 0.23994 0.76258 0.76693 0.00000
H779 H 0.29217 0.82478 0.74936 0.00000
H780 H 0.28992 0.86718 0.70252 0.00000
C781 C 0.23196 0.86624 0.64721 0.00000
C782 C 0.19354 0.84905 0.62707 0.00000
C783 C 0.16474 0.80900 0.64240 0.00000
C784 C 0.79036 0.86480 0.31968 0.00000
C785 C 0.83502 0.82794 0.32244 0.00000
C786 C 0.77248 0.88812 0.29040 0.00000
C787 C 0.79025 0.88293 0.25728 0.00000
C788 C 0.83218 0.85331 0.24516 0.00000
C789 C 0.86634 0.82111 0.26260 0.00000
C790 C 0.86711 0.81041 0.29628 0.00000
H791 H 0.79770 0.84096 0.39672 0.00000
H792 H 0.74436 0.91059 0.29317 0.00000
H793 H 0.77170 0.90171 0.24126 0.00000
H794 H 0.83793 0.85552 0.22217 0.00000
H795 H 0.89188 0.80476 0.24983 0.00000
H796 H 0.89345 0.78759 0.30288 0.00000
C797 C 0.83967 0.81614 0.35688 0.00000
C798 C 0.80266 0.84266 0.37365 0.00000
C799 C 0.77244 0.87334 0.35190 0.00000
C800 C 0.19724 0.81616 0.32542 0.00000
C801 C 0.16057 0.77149 0.32190 0.00000
C802 C 0.23298 0.83290 0.30151 0.00000
C803 C 0.24307 0.81372 0.26918 0.00000
C804 C 0.22011 0.77118 0.25276 0.00000
C805 C 0.18123 0.73764 0.26396 0.00000
C806 C 0.15562 0.73824 0.29415 0.00000
H807 H 0.13926 0.81196 0.39469 0.00000
H808 H 0.25332 0.86122 0.30789 0.00000
H809 H 0.26842 0.83167 0.25708 0.00000
H810 H 0.23270 0.76448 0.23130 0.00000
H811 H 0.17131 0.71151 0.24913 0.00000
H812 H 0.13068 0.71209 0.29663 0.00000
C813 C 0.13354 0.76824 0.35267 0.00000
C814 C 0.15139 0.80605 0.37305 0.00000
C815 C 0.19078 0.83546 0.35750 0.00000
C816 C 0.13724 0.13254 0.37895 0.00000
C817 C 0.17983 0.09353 0.37511 0.00000
C818 C 0.08764 0.12288 0.39166 0.00000
C819 C 0.06576 0.07646 0.40407 0.00000
C820 C 0.08838 0.02676 0.40610 0.00000
C821 C 0.13817 0.01080 0.39683 0.00000
C822 C 0.17762 0.04034 0.38336 0.00000
H823 H 0.22852 0.19598 0.34576 0.00000
H824 H 0.06554 0.15161 0.39204 0.00000
H825 H 0.03169 0.07910 0.41198 0.00000
H826 H 0.06700 0.00010 0.41492 0.00000
H827 H 0.14568 0.97571 0.40018 0.00000
H828 H 0.20817 0.02188 0.37895 0.00000
C829 C 0.22187 0.12062 0.36021 0.00000
C830 C 0.20725 0.17041 0.35512 0.00000
C831 C 0.15569 0.17890 0.36573 0.00000
C832 C 0.31958 0.27852 0.50637 0.00000
C833 C 0.28412 0.31522 0.48860 0.00000
C834 C 0.37186 0.28731 0.51384 0.00000
C835 C 0.40340 0.33105 0.50743 0.00000
C836 C 0.39029 0.37741 0.49081 0.00000
C837 C 0.34287 0.39228 0.47687 0.00000
C838 C 0.29692 0.36478 0.47610 0.00000
H839 H 0.21381 0.21707 0.50114 0.00000
H840 H 0.38852 0.26003 0.52482 0.00000
H841 H 0.43756 0.32890 0.51525 0.00000
H842 H 0.41719 0.40168 0.48886 0.00000
H843 H 0.34221 0.42497 0.46681 0.00000
H844 H 0.26955 0.38199 0.46545 0.00000
C845 C 0.23583 0.28897 0.48573 0.00000
C846 C 0.24060 0.24149 0.49978 0.00000
C847 C 0.29128 0.23344 0.51214 0.00000
C848 C 0.71971 0.28865 0.53546 0.00000
C849 C 0.68202 0.25337 0.51841 0.00000
C850 C 0.70930 0.31977 0.56320 0.00000
C851 C 0.66319 0.32545 0.58190 0.00000
C852 C 0.61458 0.30168 0.57677 0.00000
C853 C 0.59971 0.26609 0.55229 0.00000
C854 C 0.62953 0.24537 0.52702 0.00000
H855 H 0.78365 0.24208 0.47535 0.00000
H856 H 0.73720 0.33989 0.57055 0.00000
H857 H 0.66522 0.34804 0.60011 0.00000
H858 H 0.58858 0.31108 0.59192 0.00000
H859 H 0.56524 0.25492 0.55316 0.00000
H860 H 0.61187 0.22198 0.51323 0.00000
C861 C 0.70937 0.23148 0.49108 0.00000
C862 C 0.75812 0.25097 0.49091 0.00000
C863 C 0.76557 0.28653 0.51724 0.00000
C864 C 0.23849 0.82202 0.98907 0.00000
C865 C 0.20247 0.78603 0.97117 0.00000
C866 C 0.24167 0.87575 0.98460 0.00000
C867 C 0.21284 0.90887 0.96352 0.00000
C868 C 0.17361 0.89578 0.94055 0.00000
C869 C 0.15275 0.84709 0.93306 0.00000
C870 C 0.16570 0.79959 0.94661 0.00000
H871 H 0.26807 0.71113 0.01674 0.00000
H872 H 0.26672 0.89235 0.99762 0.00000
H873 H 0.22093 0.94422 0.96501 0.00000
H874 H 0.15953 0.92368 0.92864 0.00000
H875 H 0.12675 0.84665 0.91684 0.00000
H876 H 0.14683 0.77157 0.93803 0.00000
C877 C 0.21452 0.73546 0.98296 0.00000
C878 C 0.25357 0.73929 0.00535 0.00000
C879 C 0.26972 0.79130 0.00931 0.00000
C880 C 0.81195 0.21638 0.98230 0.00000
C881 C 0.77667 0.17927 0.99990 0.00000
C882 C 0.85906 0.20392 0.96697 0.00000
C883 C 0.88434 0.15552 0.96367 0.00000
C884 C 0.86883 0.10668 0.97594 0.00000
C885 C 0.82443 0.09347 0.99404 0.00000
C886 C 0.78458 0.12552 0.00429 0.00000
H887 H 0.72091 0.28720 0.00898 0.00000
H888 H 0.87652 0.23196 0.95737 0.00000
H889 H 0.91557 0.15601 0.95176 0.00000
H890 H 0.89151 0.07921 0.97130 0.00000
H891 H 0.82133 0.05853 0.99990 0.00000
H892 H 0.75829 0.10866 0.01622 0.00000
C893 C 0.73495 0.20970 0.01230 0.00000
C894 C 0.74330 0.25979 0.00375 0.00000
C895 C 0.79021 0.26546 0.98593 0.00000
C896 C 0.77189 0.69785 0.97703 0.00000
C897 C 0.73420 0.73313 0.95998 0.00000
C898 C 0.79050 0.65065 0.96466 0.00000
C899 C 0.77994 0.62526 0.93420 0.00000
C900 C 0.74630 0.64073 0.90837 0.00000
C901 C 0.71544 0.68518 0.90601 0.00000
C902 C 0.71057 0.72513 0.92869 0.00000
H903 H 0.75516 0.78912 0.02845 0.00000
H904 H 0.81356 0.63321 0.97869 0.00000
H905 H 0.79763 0.59399 0.93076 0.00000
H906 H 0.74439 0.61798 0.89021 0.00000
H907 H 0.69562 0.68824 0.88662 0.00000
H908 H 0.68764 0.75144 0.92219 0.00000
C909 C 0.72559 0.77495 0.98237 0.00000
C910 C 0.75413 0.76667 0.01015 0.00000
C911 C 0.78217 0.71969 0.00801 0.00000
C912 C 0.27665 0.19877 0.02638 0.00000
C913 C 0.24135 0.23581 0.04398 0.00000
C914 C 0.30633 0.15975 0.04133 0.00000
C915 C 0.31024 0.14506 0.07514 0.00000
C916 C 0.28570 0.16725 0.10309 0.00000
C917 C 0.25089 0.20878 0.10454 0.00000
C918 C 0.23189 0.23830 0.07857 0.00000
H919 H 0.23404 0.27093 0.96895 0.00000
H920 H 0.32670 0.14032 0.02667 0.00000
H921 H 0.33207 0.11684 0.07954 0.00000
H922 H 0.29390 0.15197 0.12360 0.00000
H923 H 0.23897 0.21767 0.12576 0.00000
H924 H 0.20875 0.26445 0.08502 0.00000
C925 C 0.22122 0.26913 0.01892 0.00000
C926 C 0.24171 0.25490 0.98927 0.00000
C927 C 0.27626 0.21274 0.99292 0.00000
C928 C 0.74329 0.74518 0.45542 0.00000
C929 C 0.70542 0.78103 0.47180 0.00000
C930 C 0.74899 0.73753 0.42113 0.00000
C931 C 0.72254 0.76082 0.39416 0.00000
C932 C 0.68199 0.79750 0.39497 0.00000
C933 C 0.65808 0.82066 0.42245 0.00000
C934 C 0.66870 0.81312 0.45579 0.00000
H935 H 0.76206 0.72767 0.53235 0.00000
H936 H 0.77427 0.71330 0.41511 0.00000
H937 H 0.73342 0.75045 0.37293 0.00000
H938 H 0.66929 0.80780 0.37414 0.00000
H939 H 0.63156 0.84423 0.41763 0.00000
H940 H 0.64797 0.83267 0.47027 0.00000
C941 C 0.71263 0.77436 0.50662 0.00000
C942 C 0.75018 0.73845 0.51144 0.00000
C943 C 0.76917 0.71922 0.48084 0.00000
C944 C 0.26266 0.73615 0.45605 0.00000
C945 C 0.22700 0.69826 0.47257 0.00000
C946 C 0.27577 0.73694 0.42225 0.00000
C947 C 0.25925 0.70448 0.39594 0.00000
C948 C 0.22564 0.66137 0.39722 0.00000
C949 C 0.19963 0.64015 0.42456 0.00000
C950 C 0.20058 0.65665 0.45726 0.00000
H951 H 0.26536 0.76853 0.53191 0.00000
H952 H 0.29903 0.76304 0.41610 0.00000
H953 H 0.27242 0.71272 0.37487 0.00000
H954 H 0.21994 0.64459 0.37685 0.00000
H955 H 0.17899 0.61114 0.42013 0.00000
H956 H 0.18017 0.63680 0.47175 0.00000
C957 C 0.22706 0.71154 0.50692 0.00000
C958 C 0.25915 0.75251 0.51138 0.00000
C959 C 0.28215 0.76803 0.48105 0.00000
C960 C 0.33588 0.06092 0.50256 0.00000
C961 C 0.33759 0.03546 0.46909 0.00000
C962 C 0.35939 0.10798 0.51112 0.00000
C963 C 0.38885 0.14267 0.49148 0.00000
C964 C 0.40342 0.13797 0.45778 0.00000
C965 C 0.39200 0.09842 0.43513 0.00000
C966 C 0.36325 0.05397 0.44040 0.00000
H967 H 0.27402 0.95628 0.51285 0.00000
H968 H 0.35486 0.11810 0.53327 0.00000
H969 H 0.40022 0.17275 0.50233 0.00000
H970 H 0.42360 0.16525 0.44941 0.00000
H971 H 0.40553 0.10260 0.41371 0.00000
H972 H 0.36027 0.03241 0.42172 0.00000
C973 C 0.31003 0.98801 0.47263 0.00000
C974 C 0.29342 0.98409 0.50449 0.00000
C975 C 0.30913 0.02736 0.52357 0.00000
C976 C 0.96178 0.32734 0.46628 0.00000
C977 C 0.93495 0.32643 0.49932 0.00000
C978 C 0.94020 0.34390 0.43615 0.00000
C979 C 0.89028 0.36384 0.42919 0.00000
C980 C 0.84822 0.37109 0.45114 0.00000
C981 C 0.84527 0.36114 0.48531 0.00000
C982 C 0.88338 0.34168 0.50598 0.00000
H983 H 0.04516 0.27943 0.51509 0.00000
H984 H 0.96225 0.34146 0.41775 0.00000
H985 H 0.88437 0.37349 0.40703 0.00000
H986 H 0.81799 0.38449 0.44145 0.00000
H987 H 0.81347 0.36861 0.49542 0.00000
H988 H 0.87326 0.33798 0.52825 0.00000
C989 C 0.97131 0.30506 0.52212 0.00000
C990 C 0.01539 0.29365 0.50535 0.00000
C991 C 0.01073 0.30592 0.47120 0.00000
C992 C 0.74214 0.02578 0.52981 0.00000
C993 C 0.74382 0.05100 0.49627 0.00000
C994 C 0.77361 0.03815 0.55705 0.00000
C995 C 0.81280 0.07618 0.56027 0.00000
C996 C 0.83143 0.11121 0.53610 0.00000
C997 C 0.81560 0.11779 0.50308 0.00000
C998 C 0.77735 0.09128 0.48606 0.00000
H999 H 0.65811 0.96471 0.48802 0.00000
H1000 H 0.76776 0.01820 0.57611 0.00000
H1001 H 0.82849 0.07835 0.58125 0.00000
H1002 H 0.85820 0.13318 0.54320 0.00000
H1003 H 0.83311 0.14338 0.49102 0.00000
H1004 H 0.77291 0.10187 0.46393 0.00000
C1005 C 0.70638 0.02457 0.47659 0.00000
C1006 C 0.68422 0.98713 0.49545 0.00000
C1007 C 0.70560 0.98616 0.52782 0.00000
C1008 C 0.48303 0.85527 0.97296 0.00000
C1009 C 0.45597 0.85533 0.00592 0.00000
C1010 C 0.47595 0.89141 0.94738 0.00000
C1011 C 0.44369 0.93571 0.94598 0.00000
C1012 C 0.40878 0.95444 0.97018 0.00000
C1013 C 0.39762 0.93457 0.00176 0.00000
C1014 C 0.41850 0.89134 0.01702 0.00000
H1015 H 0.52563 0.75491 0.00895 0.00000
H1016 H 0.49567 0.88537 0.92825 0.00000
H1017 H 0.44579 0.95518 0.92634 0.00000
H1018 H 0.39049 0.98446 0.96424 0.00000
H1019 H 0.37292 0.95286 0.01410 0.00000
H1020 H 0.40557 0.88482 0.03841 0.00000
C1021 C 0.47415 0.81059 0.02301 0.00000
C1022 C 0.50816 0.78541 0.00307 0.00000
C1023 C 0.51392 0.81102 0.97220 0.00000
C1024 C 0.24429 0.52369 0.02915 0.00000
C1025 C 0.24595 0.54884 0.99559 0.00000
C1026 C 0.27723 0.53459 0.05593 0.00000
C1027 C 0.31821 0.57080 0.05858 0.00000
C1028 C 0.33757 0.60496 0.03414 0.00000
C1029 C 0.32091 0.61229 0.00135 0.00000
C1030 C 0.28092 0.58756 0.98489 0.00000
H1031 H 0.15614 0.46654 0.98859 0.00000
H1032 H 0.27115 0.51492 0.07508 0.00000
H1033 H 0.33471 0.57224 0.07933 0.00000
H1034 H 0.36555 0.62569 0.04085 0.00000
H1035 H 0.33915 0.63706 0.98903 0.00000
H1036 H 0.27619 0.59835 0.96282 0.00000
C1037 C 0.20667 0.52416 0.97646 0.00000
C1038 C 0.18350 0.48775 0.99564 0.00000
C1039 C 0.20593 0.48578 0.02770 0.00000
C1040 C 0.43266 0.18018 0.99990 0.00000
C1041 C 0.45769 0.17856 0.03306 0.00000
C1042 C 0.38101 0.16773 0.99234 0.00000
C1043 C 0.34054 0.15186 0.01379 0.00000
C1044 C 0.34226 0.14312 0.04843 0.00000
C1045 C 0.38397 0.14852 0.07041 0.00000
C1046 C 0.43405 0.16401 0.06336 0.00000
H1047 H 0.54917 0.21146 0.98544 0.00000
H1048 H 0.37181 0.17038 0.96990 0.00000
H1049 H 0.30831 0.14639 0.00363 0.00000
H1050 H 0.31102 0.13216 0.05805 0.00000
H1051 H 0.37705 0.14066 0.09269 0.00000
H1052 H 0.45612 0.16505 0.08188 0.00000
C1053 C 0.51043 0.19249 0.02786 0.00000
C1054 C 0.51760 0.20138 0.99498 0.00000
C1055 C 0.47132 0.19347 0.97684 0.00000
C1056 C 0.79131 0.45816 0.03485 0.00000
C1057 C 0.78974 0.43201 0.00161 0.00000
C1058 C 0.78285 0.43438 0.06569 0.00000
C1059 C 0.77190 0.38200 0.07341 0.00000
C1060 C 0.76531 0.33977 0.05151 0.00000
C1061 C 0.76856 0.33864 0.01678 0.00000
C1062 C 0.77925 0.37914 0.99535 0.00000
H1063 H 0.81160 0.54906 0.98369 0.00000
H1064 H 0.78482 0.45655 0.08405 0.00000
H1065 H 0.76854 0.37438 0.09611 0.00000
H1066 H 0.75769 0.30796 0.06170 0.00000
H1067 H 0.76278 0.30638 0.00681 0.00000
H1068 H 0.77961 0.36993 0.97279 0.00000
C1069 C 0.79877 0.47172 0.97775 0.00000
C1070 C 0.80488 0.51725 0.99407 0.00000
C1071 C 0.79976 0.51064 0.02883 0.00000
C1072 C 0.96113 0.75302 0.49051 0.00000
C1073 C 0.98513 0.75324 0.52444 0.00000
C1074 C 0.92861 0.79134 0.47738 0.00000
C1075 C 0.91117 0.83838 0.49159 0.00000
C1076 C 0.92129 0.85848 0.52359 0.00000
C1077 C 0.95152 0.83755 0.54918 0.00000
C1078 C 0.97913 0.79165 0.54919 0.00000
H1079 H 0.02236 0.64692 0.49386 0.00000
H1080 H 0.91658 0.78487 0.45583 0.00000
H1081 H 0.89006 0.85890 0.47793 0.00000
H1082 H 0.90552 0.89038 0.52835 0.00000
H1083 H 0.95326 0.85712 0.56874 0.00000
H1084 H 0.99695 0.78486 0.56905 0.00000
C1085 C 0.01321 0.70594 0.52698 0.00000
C1086 C 0.00721 0.67922 0.49824 0.00000
C1087 C 0.97508 0.70629 0.47566 0.00000
loop_
_geom_bond_atom_site_label_1
_geom_bond_atom_site_label_2
_geom_bond_distance
_geom_bond_site_symmetry_2
_ccdc_geom_bond_type
Gd0 O10 2.329 . S
Gd0 O11 2.338 . S
Gd0 O13 2.578 1_545 S
Gd0 O14 2.345 . S
Gd0 O16 2.320 . S
Gd0 O18 2.444 1_545 S
Gd1 O3 2.340 . S
Gd1 O8 2.314 . S
Gd1 O12 2.359 . S
Gd1 O15 2.312 . S
Gd1 O17 2.344 . S
C2 O13 1.253 . A
C2 O18 1.259 . A
O3 C5 1.254 . S
C4 O10 1.242 . A
C4 O12 1.253 . A
C5 O7 1.259 . D
C6 O8 1.247 . A
C6 O11 1.248 . A
C9 O16 1.236 . A
C9 O17 1.253 . A
O14 C19 1.264 . A
O15 C19 1.243 . A
Gd20 O30 2.329 . S
Gd20 O31 2.338 . S
Gd20 O33 2.578 1_655 S
Gd20 O34 2.345 . S
Gd20 O36 2.320 . S
Gd20 O38 2.444 1_655 S
Gd21 O23 2.340 . S
Gd21 O28 2.314 . S
Gd21 O32 2.359 . S
Gd21 O35 2.312 . S
Gd21 O37 2.344 . S
C22 O33 1.253 . A
C22 O38 1.259 . A
O23 C25 1.254 . S
C24 O30 1.242 . A
C24 O32 1.253 . A
C25 O27 1.259 . D
C26 O28 1.247 . A
C26 O31 1.248 . A
C29 O36 1.236 . A
C29 O37 1.253 . A
O34 C39 1.264 . A
O35 C39 1.243 . A
Gd40 O50 2.329 . S
Gd40 O51 2.338 . S
Gd40 O53 2.578 1_545 S
Gd40 O54 2.345 . S
Gd40 O56 2.320 . S
Gd40 O58 2.444 1_545 S
Gd41 O43 2.340 . S
Gd41 O48 2.314 . S
Gd41 O52 2.359 . S
Gd41 O55 2.312 . S
Gd41 O57 2.344 . S
C42 O53 1.253 . A
C42 O58 1.259 . A
O43 C45 1.254 . S
C44 O50 1.242 . A
C44 O52 1.253 . A
C45 O47 1.259 . D
C46 O48 1.247 . A
C46 O51 1.248 . A
C49 O56 1.236 . A
C49 O57 1.253 . A
O54 C59 1.264 . A
O55 C59 1.243 . A
Gd60 O70 2.329 . S
Gd60 O71 2.338 . S
Gd60 O73 2.578 . S
Gd60 O74 2.345 . S
Gd60 O76 2.320 . S
Gd60 O78 2.444 . S
Gd61 O63 2.340 . S
Gd61 O68 2.314 . S
Gd61 O72 2.359 . S
Gd61 O75 2.312 . S
Gd61 O77 2.344 . S
C62 O73 1.253 . A
C62 O78 1.259 . A
O63 C65 1.254 . S
C64 O70 1.242 . A
C64 O72 1.253 . A
C65 O67 1.259 . D
C66 O68 1.247 . A
C66 O71 1.248 . A
C69 O76 1.236 . A
C69 O77 1.253 . A
O74 C79 1.264 . A
O75 C79 1.243 . A
Gd80 O90 2.329 . S
Gd80 O91 2.338 . S
Gd80 O93 2.578 . S
Gd80 O94 2.345 . S
Gd80 O96 2.320 . S
Gd80 O98 2.444 . S
Gd81 O83 2.340 . S
Gd81 O88 2.314 . S
Gd81 O92 2.359 . S
Gd81 O95 2.312 . S
Gd81 O97 2.344 . S
C82 O93 1.253 . A
C82 O98 1.259 . A
O83 C85 1.254 . S
C84 O90 1.242 . A
C84 O92 1.253 . A
C85 O87 1.259 . D
C86 O88 1.247 . A
C86 O91 1.248 . A
C89 O96 1.236 . A
C89 O97 1.253 . A
O94 C99 1.264 . A
O95 C99 1.243 . A
Gd100 O110 2.329 . S
Gd100 O111 2.338 . S
Gd100 O113 2.578 . S
Gd100 O114 2.345 . S
Gd100 O116 2.320 . S
Gd100 O118 2.444 . S
Gd101 O103 2.340 . S
Gd101 O108 2.314 . S
Gd101 O112 2.359 . S
Gd101 O115 2.312 . S
Gd101 O117 2.344 . S
C102 O113 1.253 . A
C102 O118 1.259 . A
O103 C105 1.254 . S
C104 O110 1.242 . A
C104 O112 1.253 . A
C105 O107 1.259 . D
C106 O108 1.247 . A
C106 O111 1.248 . A
C109 O116 1.236 . A
C109 O117 1.253 . A
O114 C119 1.264 . A
O115 C119 1.243 . A
Gd120 O130 2.329 . S
Gd120 O131 2.338 . S
Gd120 O133 2.578 . S
Gd120 O134 2.345 . S
Gd120 O136 2.320 . S
Gd120 O138 2.444 . S
Gd121 O123 2.340 . S
Gd121 O128 2.314 . S
Gd121 O132 2.359 . S
Gd121 O135 2.312 . S
Gd121 O137 2.344 . S
C122 O133 1.253 . A
C122 O138 1.259 . A
O123 C125 1.254 . S
C124 O130 1.242 . A
C124 O132 1.253 . A
C125 O127 1.259 . D
C126 O128 1.247 . A
C126 O131 1.248 . A
C129 O136 1.236 . A
C129 O137 1.253 . A
O134 C139 1.264 . A
O135 C139 1.243 . A
Gd140 O150 2.329 . S
Gd140 O151 2.338 . S
Gd140 O153 2.578 . S
Gd140 O154 2.345 . S
Gd140 O156 2.320 . S
Gd140 O158 2.444 . S
Gd141 O143 2.340 . S
Gd141 O148 2.314 . S
Gd141 O152 2.359 . S
Gd141 O155 2.312 . S
Gd141 O157 2.344 . S
C142 O153 1.253 . A
C142 O158 1.259 . A
O143 C145 1.254 . S
C144 O150 1.242 . A
C144 O152 1.253 . A
C145 O147 1.259 . D
C146 O148 1.247 . A
C146 O151 1.248 . A
C149 O156 1.236 . A
C149 O157 1.253 . A
O154 C159 1.264 . A
O155 C159 1.243 . A
Gd160 O170 2.329 . S
Gd160 O171 2.338 . S
Gd160 O173 2.578 . S
Gd160 O174 2.345 . S
Gd160 O176 2.320 . S
Gd160 O178 2.444 . S
Gd161 O163 2.340 . S
Gd161 O168 2.314 . S
Gd161 O172 2.359 . S
Gd161 O175 2.312 . S
Gd161 O177 2.344 . S
C162 O173 1.253 . A
C162 O178 1.259 . A
O163 C165 1.254 . S
C164 O170 1.242 . A
C164 O172 1.253 . A
C165 O167 1.259 . D
C166 O168 1.247 . A
C166 O171 1.248 . A
C169 O176 1.236 . A
C169 O177 1.253 . A
O174 C179 1.264 . A
O175 C179 1.243 . A
Gd180 O190 2.329 . S
Gd180 O191 2.338 . S
Gd180 O193 2.578 . S
Gd180 O194 2.345 . S
Gd180 O196 2.320 . S
Gd180 O198 2.444 . S
Gd181 O183 2.340 . S
Gd181 O188 2.314 . S
Gd181 O192 2.359 . S
Gd181 O195 2.312 . S
Gd181 O197 2.344 . S
C182 O193 1.253 . A
C182 O198 1.259 . A
O183 C185 1.254 . S
C184 O190 1.242 . A
C184 O192 1.253 . A
C185 O187 1.259 . D
C186 O188 1.247 . A
C186 O191 1.248 . A
C189 O196 1.236 . A
C189 O197 1.253 . A
O194 C199 1.264 . A
O195 C199 1.243 . A
Gd200 O210 2.329 . S
Gd200 O211 2.338 . S
Gd200 O213 2.578 . S
Gd200 O214 2.345 . S
Gd200 O216 2.320 . S
Gd200 O218 2.444 . S
Gd201 O203 2.340 . S
Gd201 O208 2.314 . S
Gd201 O212 2.359 . S
Gd201 O215 2.312 . S
Gd201 O217 2.344 . S
C202 O213 1.253 . A
C202 O218 1.259 . A
O203 C205 1.254 . S
C204 O210 1.242 . A
C204 O212 1.253 . A
C205 O207 1.259 . D
C206 O208 1.247 . A
C206 O211 1.248 . A
C209 O216 1.236 . A
C209 O217 1.253 . A
O214 C219 1.264 . A
O215 C219 1.243 . A
Gd220 O230 2.329 . S
Gd220 O231 2.338 . S
Gd220 O233 2.578 1_565 S
Gd220 O234 2.345 . S
Gd220 O236 2.320 . S
Gd220 O238 2.444 1_565 S
Gd221 O223 2.340 . S
Gd221 O228 2.314 . S
Gd221 O232 2.359 . S
Gd221 O235 2.312 . S
Gd221 O237 2.344 . S
C222 O233 1.253 . A
C222 O238 1.259 . A
O223 C225 1.254 . S
C224 O230 1.242 . A
C224 O232 1.253 . A
C225 O227 1.259 . D
C226 O228 1.247 . A
C226 O231 1.248 . A
C229 O236 1.236 . A
C229 O237 1.253 . A
O234 C239 1.264 . A
O235 C239 1.243 . A
Gd240 O250 2.329 . S
Gd240 O251 2.338 . S
Gd240 O253 2.578 1_455 S
Gd240 O254 2.345 . S
Gd240 O256 2.320 . S
Gd240 O258 2.444 1_455 S
Gd241 O243 2.340 . S
Gd241 O248 2.314 . S
Gd241 O252 2.359 . S
Gd241 O255 2.312 . S
Gd241 O257 2.344 . S
C242 O253 1.253 . A
C242 O258 1.259 . A
O243 C245 1.254 . S
C244 O250 1.242 . A
C244 O252 1.253 . A
C245 O247 1.259 . D
C246 O248 1.247 . A
C246 O251 1.248 . A
C249 O256 1.236 . A
C249 O257 1.253 . A
O254 C259 1.264 . A
O255 C259 1.243 . A
Gd260 O270 2.329 . S
Gd260 O271 2.338 . S
Gd260 O273 2.578 1_655 S
Gd260 O274 2.345 . S
Gd260 O276 2.320 . S
Gd260 O278 2.444 1_655 S
Gd261 O263 2.340 . S
Gd261 O268 2.314 . S
Gd261 O272 2.359 . S
Gd261 O275 2.312 . S
Gd261 O277 2.344 . S
C262 O273 1.253 . A
C262 O278 1.259 . A
O263 C265 1.254 . S
C264 O270 1.242 . A
C264 O272 1.253 . A
C265 O267 1.259 . D
C266 O268 1.247 . A
C266 O271 1.248 . A
C269 O276 1.236 . A
C269 O277 1.253 . A
O274 C279 1.264 . A
O275 C279 1.243 . A
Gd280 O290 2.329 . S
Gd280 O291 2.338 . S
Gd280 O293 2.578 1_565 S
Gd280 O294 2.345 . S
Gd280 O296 2.320 . S
Gd280 O298 2.444 1_565 S
Gd281 O283 2.340 . S
Gd281 O288 2.314 . S
Gd281 O292 2.359 . S
Gd281 O295 2.312 . S
Gd281 O297 2.344 . S
C282 O293 1.253 . A
C282 O298 1.259 . A
O283 C285 1.254 . S
C284 O290 1.242 . A
C284 O292 1.253 . A
C285 O287 1.259 . D
C286 O288 1.247 . A
C286 O291 1.248 . A
C289 O296 1.236 . A
C289 O297 1.253 . A
O294 C299 1.264 . A
O295 C299 1.243 . A
Gd300 O310 2.329 . S
Gd300 O311 2.338 . S
Gd300 O313 2.578 1_455 S
Gd300 O314 2.345 . S
Gd300 O316 2.320 . S
Gd300 O318 2.444 1_455 S
Gd301 O303 2.340 . S
Gd301 O308 2.314 . S
Gd301 O312 2.359 . S
Gd301 O315 2.312 . S
Gd301 O317 2.344 . S
C302 O313 1.253 . A
C302 O318 1.259 . A
O303 C305 1.254 . S
C304 O310 1.242 . A
C304 O312 1.253 . A
C305 O307 1.259 . D
C306 O308 1.247 . A
C306 O311 1.248 . A
C309 O316 1.236 . A
C309 O317 1.253 . A
O314 C319 1.264 . A
O315 C319 1.243 . A
C320 C321 1.487 . S
C320 C322 1.390 . A
C320 C335 1.382 . A
C321 C326 1.403 . A
C321 C333 1.412 . A
C322 C323 1.404 . A
C322 H328 0.928 . S
C323 C324 1.401 . A
C323 H329 0.930 . S
C324 C325 1.389 . A
C324 H330 0.931 . S
C325 C326 1.372 . A
C325 H331 0.929 . S
C326 H332 0.931 . S
H327 C334 0.930 . S
C333 C334 1.344 . A
C334 C335 1.403 . A
C336 C337 1.487 . S
C336 C338 1.390 . A
C336 C351 1.382 . A
C337 C342 1.403 . A
C337 C349 1.412 . A
C338 C339 1.404 . A
C338 H344 0.928 . S
C339 C340 1.401 . A
C339 H345 0.930 . S
C340 C341 1.389 . A
C340 H346 0.931 . S
C341 C342 1.372 . A
C341 H347 0.929 . S
C342 H348 0.931 . S
H343 C350 0.930 . S
C349 C350 1.344 . A
C350 C351 1.403 . A
C352 C353 1.487 . S
C352 C354 1.390 . A
C352 C367 1.382 . A
C353 C358 1.403 . A
C353 C365 1.412 . A
C354 C355 1.404 1_545 A
C354 H360 0.928 . S
C355 C356 1.401 . A
C355 H361 0.930 . S
C356 C357 1.389 . A
C356 H362 0.931 . S
C357 C358 1.372 1_565 A
C357 H363 0.929 . S
C358 H364 0.931 . S
H359 C366 0.930 . S
C365 C366 1.344 . A
C366 C367 1.403 . A
C368 C369 1.487 . S
C368 C370 1.390 . A
C368 C383 1.382 . A
C369 C374 1.403 . A
C369 C381 1.412 . A
C370 C371 1.404 1_565 A
C370 H376 0.928 . S
C371 C372 1.401 . A
C371 H377 0.930 . S
C372 C373 1.383 1_545 A
C372 H378 0.931 . S
C373 C374 1.384 . A
C373 H379 0.922 1_565 S
C374 H380 0.931 . S
H375 C382 0.930 . S
C381 C382 1.344 . A
C382 C383 1.403 . A
C384 C385 1.487 . S
C384 C386 1.390 . A
C384 C399 1.382 . A
C385 C390 1.403 . A
C385 C397 1.412 . A
C386 C387 1.404 . A
C386 H392 0.928 . S
C387 C388 1.401 . A
C387 H393 0.930 . S
C388 C389 1.389 . A
C388 H394 0.931 . S
C389 C390 1.372 . A
C389 H395 0.929 . S
C390 H396 0.931 . S
H391 C398 0.930 . S
C397 C398 1.344 . A
C398 C399 1.403 . A
C400 C401 1.487 . S
C400 C402 1.390 . A
C400 C415 1.382 . A
C401 C406 1.403 . A
C401 C413 1.412 . A
C402 C403 1.404 . A
C402 H408 0.928 . S
C403 C404 1.401 . A
C403 H409 0.930 . S
C404 C405 1.389 . A
C404 H410 0.931 . S
C405 C406 1.372 . A
C405 H411 0.929 . S
C406 H412 0.931 . S
H407 C414 0.930 . S
C413 C414 1.344 . A
C414 C415 1.403 . A
C416 C417 1.487 . S
C416 C418 1.390 . A
C416 C431 1.382 . A
C417 C422 1.403 . A
C417 C429 1.412 . A
C418 C419 1.404 . A
C418 H424 0.928 . S
C419 C420 1.401 . A
C419 H425 0.930 . S
C420 C421 1.389 . A
C420 H426 0.931 . S
C421 C422 1.372 . A
C421 H427 0.929 . S
C422 H428 0.931 . S
H423 C430 0.930 . S
C429 C430 1.344 . A
C430 C431 1.403 . A
C432 C433 1.487 . S
C432 C434 1.390 . A
C432 C447 1.382 . A
C433 C438 1.403 . A
C433 C445 1.412 . A
C434 C435 1.404 1_565 A
C434 H440 0.928 . S
C435 C436 1.401 . A
C435 H441 0.930 . S
C436 C437 1.389 . A
C436 H442 0.931 . S
C437 C438 1.372 1_545 A
C437 H443 0.929 . S
C438 H444 0.931 . S
H439 C446 0.930 . S
C445 C446 1.344 . A
C446 C447 1.403 . A
C448 C449 1.487 . S
C448 C450 1.390 . A
C448 C463 1.382 . A
C449 C454 1.403 . A
C449 C461 1.412 1_545 A
C450 C451 1.404 . A
C450 H456 0.928 . S
C451 C452 1.401 . A
C451 H457 0.930 . S
C452 C453 1.389 . A
C452 H458 0.931 . S
C453 C454 1.372 . A
C453 H459 0.929 . S
C454 H460 0.931 . S
H455 C462 0.930 . S
C461 C462 1.344 . A
C462 C463 1.403 1_565 A
C464 C465 1.487 . S
C464 C466 1.390 . A
C464 C479 1.382 1_655 A
C465 C470 1.403 . A
C465 C477 1.412 . A
C466 C467 1.404 . A
C466 H472 0.928 1_655 S
C467 C468 1.401 . A
C467 H473 0.930 . S
C468 C469 1.389 . A
C468 H474 0.931 . S
C469 C470 1.372 . A
C469 H475 0.929 . S
C470 H476 0.931 . S
H471 C478 0.930 . S
C477 C478 1.344 1_655 A
C478 C479 1.403 . A
C480 C481 1.487 . S
C480 C482 1.390 . A
C480 C495 1.382 1_545 A
C481 C486 1.403 . A
C481 C493 1.412 . A
C482 C483 1.404 . A
C482 H488 0.928 . S
C483 C484 1.401 . A
C483 H489 0.930 . S
C484 C485 1.389 . A
C484 H490 0.931 . S
C485 C486 1.372 . A
C485 H491 0.929 . S
C486 H492 0.931 . S
H487 C494 0.930 . S
C493 C494 1.344 1_545 A
C494 C495 1.403 . A
C496 C497 1.487 1_545 S
C496 C498 1.390 . A
C496 C511 1.382 . A
C497 C502 1.403 . A
C497 C509 1.412 . A
C498 C499 1.404 . A
C498 H504 0.928 . S
C499 C500 1.401 . A
C499 H505 0.930 . S
C500 C501 1.389 1_545 A
C500 H506 0.931 1_554 S
C501 C502 1.372 . A
C501 H507 0.929 . S
C502 H508 0.931 . S
H503 C510 0.930 . S
C509 C510 1.344 . A
C510 C511 1.403 1_565 A
C512 C513 1.487 . S
C512 C514 1.390 . A
C512 C527 1.382 . A
C513 C518 1.403 1_655 A
C513 C525 1.412 1_655 A
C514 C515 1.404 . A
C514 H520 0.928 . S
C515 C516 1.401 . A
C515 H521 0.930 . S
C516 C517 1.389 . A
C516 H522 0.931 . S
C517 C518 1.372 1_655 A
C517 H523 0.929 . S
C518 H524 0.931 . S
H519 C526 0.930 . S
C525 C526 1.344 . A
C526 C527 1.403 1_455 A
C528 C529 1.487 . S
C528 C530 1.390 1_655 A
C528 C543 1.382 1_655 A
C529 C534 1.403 . A
C529 C541 1.412 . A
C530 C531 1.404 1_455 A
C530 H536 0.928 . S
C531 C532 1.401 . A
C531 H537 0.930 . S
C532 C533 1.389 . A
C532 H538 0.931 . S
C533 C534 1.372 . A
C533 H539 0.929 . S
C534 H540 0.931 . S
H535 C542 0.930 . S
C541 C542 1.344 1_655 A
C542 C543 1.403 . A
C544 C545 1.500 . S
C544 C546 1.387 1_545 A
C544 C559 1.372 1_545 A
C545 C550 1.403 . A
C545 C557 1.412 . A
C546 C547 1.404 1_565 A
C546 H552 0.928 . S
C547 C548 1.401 . A
C547 H553 0.930 . S
C548 C549 1.389 . A
C548 H554 0.931 . S
C549 C550 1.372 . A
C549 H555 0.929 . S
C550 H556 0.931 . S
H551 C558 0.930 . S
C557 C558 1.344 1_545 A
C558 C559 1.403 . A
C560 C561 1.487 . S
C560 C562 1.390 . A
C560 C575 1.382 1_655 A
C561 C566 1.403 . A
C561 C573 1.412 . A
C562 C563 1.404 . A
C562 H568 0.928 1_655 S
C563 C564 1.401 . A
C563 H569 0.930 . S
C564 C565 1.389 . A
C564 H570 0.931 . S
C565 C566 1.372 . A
C565 H571 0.929 . S
C566 H572 0.931 . S
H567 C574 0.930 . S
C573 C574 1.344 1_655 A
C574 C575 1.403 . A
C576 C577 1.487 . S
C576 C578 1.390 . A
C576 C591 1.382 . A
C577 C582 1.403 . A
C577 C589 1.412 . A
C578 C579 1.404 . A
C578 H584 0.928 . S
C579 C580 1.401 . A
C579 H585 0.930 . S
C580 C581 1.389 . A
C580 H586 0.931 . S
C581 C582 1.372 . A
C581 H587 0.929 . S
C582 H588 0.931 . S
H583 C590 0.930 . S
C589 C590 1.344 . A
C590 C591 1.403 . A
C592 C593 1.487 . S
C592 C594 1.390 . A
C592 C607 1.382 . A
C593 C598 1.403 . A
C593 C605 1.412 . A
C594 C595 1.404 . A
C594 H600 0.928 . S
C595 C596 1.401 . A
C595 H601 0.930 . S
C596 C597 1.389 . A
C596 H602 0.931 . S
C597 C598 1.372 . A
C597 H603 0.929 1_545 S
C598 H604 0.931 . S
H599 C606 0.930 . S
C605 C606 1.344 . A
C606 C607 1.403 . A
C608 C609 1.487 . S
C608 C610 1.390 . A
C608 C623 1.382 . A
C609 C614 1.403 . A
C609 C621 1.412 . A
C610 C611 1.404 . A
C610 H616 0.928 . S
C611 C612 1.401 . A
C611 H617 0.930 . S
C612 C613 1.389 . A
C612 H618 0.931 . S
C613 C614 1.372 . A
C613 H619 0.929 . S
C614 H620 0.931 . S
H615 C622 0.930 . S
C621 C622 1.344 . A
C622 C623 1.403 . A
C624 C625 1.487 . S
C624 C626 1.390 . A
C624 C639 1.382 . A
C625 C630 1.403 . A
C625 C637 1.412 . A
C626 C627 1.404 . A
C626 H632 0.928 . S
C627 C628 1.401 . A
C627 H633 0.930 . S
C628 C629 1.389 . A
C628 H634 0.931 . S
C629 C630 1.372 . A
C629 H635 0.929 . S
C630 H636 0.931 . S
H631 C638 0.930 . S
C637 C638 1.344 . A
C638 C639 1.403 . A
C640 C641 1.487 . S
C640 C642 1.390 . A
C640 C655 1.382 . A
C641 C646 1.403 . A
C641 C653 1.412 . A
C642 C643 1.404 . A
C642 H648 0.928 . S
C643 C644 1.401 . A
C643 H649 0.930 . S
C644 C645 1.389 . A
C644 H650 0.931 . S
C645 C646 1.372 . A
C645 H651 0.929 . S
C646 H652 0.931 . S
H647 C654 0.930 . S
C653 C654 1.344 . A
C654 C655 1.403 . A
C656 C657 1.487 . S
C656 C658 1.390 . A
C656 C671 1.382 . A
C657 C662 1.403 . A
C657 C669 1.412 . A
C658 C659 1.404 . A
C658 H664 0.928 . S
C659 C660 1.401 . A
C659 H665 0.930 . S
C660 C661 1.389 . A
C660 H666 0.931 . S
C661 C662 1.372 . A
C661 H667 0.929 . S
C662 H668 0.931 . S
H663 C670 0.930 . S
C669 C670 1.344 . A
C670 C671 1.403 . A
C672 C673 1.487 . S
C672 C674 1.390 . A
C672 C687 1.382 . A
C673 C678 1.403 . A
C673 C685 1.412 . A
C674 C675 1.404 . A
C674 H680 0.928 . S
C675 C676 1.401 . A
C675 H681 0.930 . S
C676 C677 1.389 . A
C676 H682 0.931 . S
C677 C678 1.372 . A
C677 H683 0.929 . S
C678 H684 0.931 . S
H679 C686 0.930 . S
C685 C686 1.344 . A
C686 C687 1.403 . A
C688 C689 1.487 . S
C688 C690 1.390 . A
C688 C703 1.382 . A
C689 C694 1.403 . A
C689 C701 1.412 . A
C690 C691 1.404 . A
C690 H696 0.928 . S
C691 C692 1.401 . A
C691 H697 0.930 . S
C692 C693 1.389 . A
C692 H698 0.931 . S
C693 C694 1.372 . A
C693 H699 0.929 . S
C694 H700 0.931 . S
H695 C702 0.930 . S
C701 C702 1.344 . A
C702 C703 1.403 . A
C704 C705 1.487 . S
C704 C706 1.390 . A
C704 C719 1.382 . A
C705 C710 1.403 . A
C705 C717 1.412 . A
C706 C707 1.404 . A
C706 H712 0.928 . S
C707 C708 1.401 . A
C707 H713 0.930 . S
C708 C709 1.389 . A
C708 H714 0.931 . S
C709 C710 1.372 . A
C709 H715 0.929 . S
C710 H716 0.931 . S
H711 C718 0.930 . S
C717 C718 1.344 . A
C718 C719 1.403 . A
C720 C721 1.487 . S
C720 C722 1.390 . A
C720 C735 1.382 . A
C721 C726 1.403 . A
C721 C733 1.412 . A
C722 C723 1.404 . A
C722 H728 0.928 . S
C723 C724 1.401 . A
C723 H729 0.930 . S
C724 C725 1.389 . A
C724 H730 0.931 . S
C725 C726 1.372 . A
C725 H731 0.929 . S
C726 H732 0.931 . S
H727 C734 0.930 . S
C733 C734 1.344 . A
C734 C735 1.403 . A
C736 C737 1.487 . S
C736 C738 1.390 . A
C736 C751 1.382 . A
C737 C742 1.403 . A
C737 C749 1.412 . A
C738 C739 1.404 . A
C738 H744 0.928 . S
C739 C740 1.401 . A
C739 H745 0.930 . S
C740 C741 1.389 . A
C740 H746 0.931 . S
C741 C742 1.372 . A
C741 H747 0.929 . S
C742 H748 0.931 . S
H743 C750 0.930 . S
C749 C750 1.344 . A
C750 C751 1.403 . A
C752 C753 1.487 . S
C752 C754 1.390 . A
C752 C767 1.382 . A
C753 C758 1.403 . A
C753 C765 1.412 . A
C754 C755 1.404 . A
C754 H760 0.928 . S
C755 C756 1.401 . A
C755 H761 0.930 . S
C756 C757 1.389 . A
C756 H762 0.931 . S
C757 C758 1.372 . A
C757 H763 0.929 . S
C758 H764 0.931 . S
H759 C766 0.930 . S
C765 C766 1.344 . A
C766 C767 1.403 . A
C768 C769 1.487 . S
C768 C770 1.390 . A
C768 C783 1.382 . A
C769 C774 1.403 . A
C769 C781 1.412 . A
C770 C771 1.404 . A
C770 H776 0.928 . S
C771 C772 1.401 . A
C771 H777 0.930 . S
C772 C773 1.389 . A
C772 H778 0.931 . S
C773 C774 1.372 . A
C773 H779 0.929 . S
C774 H780 0.931 . S
H775 C782 0.930 . S
C781 C782 1.344 . A
C782 C783 1.403 . A
C784 C785 1.487 . S
C784 C786 1.390 . A
C784 C799 1.382 . A
C785 C790 1.403 . A
C785 C797 1.412 . A
C786 C787 1.404 . A
C786 H792 0.928 . S
C787 C788 1.401 . A
C787 H793 0.930 . S
C788 C789 1.389 . A
C788 H794 0.931 . S
C789 C790 1.372 . A
C789 H795 0.929 . S
C790 H796 0.931 . S
H791 C798 0.930 . S
C797 C798 1.344 . A
C798 C799 1.403 . A
C800 C801 1.487 . S
C800 C802 1.390 . A
C800 C815 1.382 . A
C801 C806 1.403 . A
C801 C813 1.412 . A
C802 C803 1.404 . A
C802 H808 0.928 . S
C803 C804 1.401 . A
C803 H809 0.930 . S
C804 C805 1.389 . A
C804 H810 0.931 . S
C805 C806 1.372 . A
C805 H811 0.929 . S
C806 H812 0.931 . S
H807 C814 0.930 . S
C813 C814 1.344 . A
C814 C815 1.403 . A
C816 C817 1.487 . S
C816 C818 1.390 . A
C816 C831 1.382 . A
C817 C822 1.403 . A
C817 C829 1.412 . A
C818 C819 1.404 . A
C818 H824 0.928 . S
C819 C820 1.401 . A
C819 H825 0.930 . S
C820 C821 1.389 . A
C820 H826 0.943 . S
C821 C822 1.372 . A
C821 H827 0.929 1_545 S
C822 H828 0.931 . S
H823 C830 0.930 . S
C829 C830 1.344 . A
C830 C831 1.403 . A
C832 C833 1.487 . S
C832 C834 1.390 . A
C832 C847 1.382 . A
C833 C838 1.403 . A
C833 C845 1.412 . A
C834 C835 1.404 . A
C834 H840 0.928 . S
C835 C836 1.401 . A
C835 H841 0.930 . S
C836 C837 1.389 . A
C836 H842 0.931 . S
C837 C838 1.372 . A
C837 H843 0.929 . S
C838 H844 0.931 . S
H839 C846 0.930 . S
C845 C846 1.344 . A
C846 C847 1.403 . A
C848 C849 1.487 . S
C848 C850 1.390 . A
C848 C863 1.382 . A
C849 C854 1.403 . A
C849 C861 1.412 . A
C850 C851 1.404 . A
C850 H856 0.928 . S
C851 C852 1.401 . A
C851 H857 0.930 . S
C852 C853 1.389 . A
C852 H858 0.931 . S
C853 C854 1.372 . A
C853 H859 0.929 . S
C854 H860 0.931 . S
H855 C862 0.930 . S
C861 C862 1.344 . A
C862 C863 1.403 . A
C864 C865 1.487 . S
C864 C866 1.390 . A
C864 C879 1.382 1_556 A
C865 C870 1.403 . A
C865 C877 1.412 . A
C866 C867 1.404 . A
C866 H872 0.928 . S
C867 C868 1.401 . A
C867 H873 0.930 . S
C868 C869 1.389 . A
C868 H874 0.931 . S
C869 C870 1.372 . A
C869 H875 0.929 . S
C870 H876 0.931 . S
H871 C878 0.930 . S
C877 C878 1.344 1_556 A
C878 C879 1.403 . A
C880 C881 1.487 . S
C880 C882 1.390 . A
C880 C895 1.382 . A
C881 C886 1.402 1_556 A
C881 C893 1.412 1_556 A
C882 C883 1.404 . A
C882 H888 0.928 . S
C883 C884 1.401 . A
C883 H889 0.930 . S
C884 C885 1.389 . A
C884 H890 0.931 . S
C885 C886 1.372 1_556 A
C885 H891 0.928 . S
C886 H892 0.931 . S
H887 C894 0.930 . S
C893 C894 1.344 . A
C894 C895 1.403 1_554 A
C896 C897 1.487 . S
C896 C898 1.390 . A
C896 C911 1.382 1_556 A
C897 C902 1.403 . A
C897 C909 1.412 . A
C898 C899 1.404 . A
C898 H904 0.928 . S
C899 C900 1.401 . A
C899 H905 0.930 . S
C900 C901 1.389 . A
C900 H906 0.931 . S
C901 C902 1.372 . A
C901 H907 0.929 . S
C902 H908 0.931 . S
H903 C910 0.930 . S
C909 C910 1.344 1_556 A
C910 C911 1.403 . A
C912 C913 1.487 . S
C912 C914 1.390 . A
C912 C927 1.382 1_554 A
C913 C918 1.403 . A
C913 C925 1.412 . A
C914 C915 1.404 . A
C914 H920 0.928 . S
C915 C916 1.401 . A
C915 H921 0.930 . S
C916 C917 1.389 . A
C916 H922 0.931 . S
C917 C918 1.372 . A
C917 H923 0.929 . S
C918 H924 0.931 . S
H919 C926 0.930 . S
C925 C926 1.344 1_554 A
C926 C927 1.403 . A
C928 C929 1.487 . S
C928 C930 1.390 . A
C928 C943 1.382 . A
C929 C934 1.403 . A
C929 C941 1.412 . A
C930 C931 1.404 . A
C930 H936 0.928 . S
C931 C932 1.401 . A
C931 H937 0.930 . S
C932 C933 1.389 . A
C932 H938 0.931 . S
C933 C934 1.372 . A
C933 H939 0.929 . S
C934 H940 0.931 . S
H935 C942 0.930 . S
C941 C942 1.344 . A
C942 C943 1.403 . A
C944 C945 1.487 . S
C944 C946 1.390 . A
C944 C959 1.382 . A
C945 C950 1.403 . A
C945 C957 1.412 . A
C946 C947 1.404 . A
C946 H952 0.928 . S
C947 C948 1.401 . A
C947 H953 0.930 . S
C948 C949 1.389 . A
C948 H954 0.931 . S
C949 C950 1.372 . A
C949 H955 0.929 . S
C950 H956 0.931 . S
H951 C958 0.930 . S
C957 C958 1.344 . A
C958 C959 1.403 . A
C960 C961 1.487 . S
C960 C962 1.390 . A
C960 C975 1.382 . A
C961 C966 1.403 . A
C961 C973 1.412 1_545 A
C962 C963 1.404 . A
C962 H968 0.928 . S
C963 C964 1.401 . A
C963 H969 0.930 . S
C964 C965 1.389 . A
C964 H970 0.931 . S
C965 C966 1.372 . A
C965 H971 0.929 . S
C966 H972 0.931 . S
H967 C974 0.930 . S
C973 C974 1.344 . A
C974 C975 1.403 1_565 A
C976 C977 1.487 . S
C976 C978 1.390 . A
C976 C991 1.382 1_655 A
C977 C982 1.403 . A
C977 C989 1.412 . A
C978 C979 1.404 . A
C978 H984 0.928 . S
C979 C980 1.401 . A
C979 H985 0.930 . S
C980 C981 1.389 . A
C980 H986 0.931 . S
C981 C982 1.372 . A
C981 H987 0.929 . S
C982 H988 0.931 . S
H983 C990 0.930 . S
C989 C990 1.344 1_655 A
C990 C991 1.403 . A
C992 C993 1.487 . S
C992 C994 1.390 . A
C992 C1007 1.382 1_545 A
C993 C998 1.403 . A
C993 C1005 1.412 . A
C994 C995 1.404 . A
C994 H1000 0.928 . S
C995 C996 1.401 . A
C995 H1001 0.930 . S
C996 C997 1.389 . A
C996 H1002 0.931 . S
C997 C998 1.372 . A
C997 H1003 0.929 . S
C998 H1004 0.931 . S
H999 C1006 0.930 . S
C1005 C1006 1.344 1_545 A
C1006 C1007 1.403 . A
C1008 C1009 1.487 1_556 S
C1008 C1010 1.390 . A
C1008 C1023 1.382 . A
C1009 C1014 1.403 . A
C1009 C1021 1.412 . A
C1010 C1011 1.404 . A
C1010 H1016 0.928 . S
C1011 C1012 1.401 . A
C1011 H1017 0.930 . S
C1012 C1013 1.389 1_556 A
C1012 H1018 0.931 . S
C1013 C1014 1.372 . A
C1013 H1019 0.929 . S
C1014 H1020 0.931 . S
H1015 C1022 0.930 . S
C1021 C1022 1.344 . A
C1022 C1023 1.403 1_554 A
C1024 C1025 1.487 1_554 S
C1024 C1026 1.390 . A
C1024 C1039 1.382 . A
C1025 C1030 1.403 . A
C1025 C1037 1.412 . A
C1026 C1027 1.404 . A
C1026 H1032 0.928 . S
C1027 C1028 1.401 . A
C1027 H1033 0.930 . S
C1028 C1029 1.389 . A
C1028 H1034 0.931 . S
C1029 C1030 1.372 1_554 A
C1029 H1035 0.929 1_554 S
C1030 H1036 0.931 . S
H1031 C1038 0.930 . S
C1037 C1038 1.344 . A
C1038 C1039 1.403 1_556 A
C1040 C1041 1.471 1_556 S
C1040 C1042 1.393 . A
C1040 C1055 1.394 . A
C1041 C1046 1.403 . A
C1041 C1053 1.412 . A
C1042 C1043 1.404 1_556 A
C1042 H1048 0.928 . S
C1043 C1044 1.401 . A
C1043 H1049 0.930 . S
C1044 C1045 1.389 . A
C1044 H1050 0.931 . S
C1045 C1046 1.372 . A
C1045 H1051 0.929 . S
C1046 H1052 0.931 . S
H1047 C1054 0.930 . S
C1053 C1054 1.344 1_554 A
C1054 C1055 1.403 . A
C1056 C1057 1.487 . S
C1056 C1058 1.390 . A
C1056 C1071 1.382 . A
C1057 C1062 1.403 1_554 A
C1057 C1069 1.412 1_554 A
C1058 C1059 1.404 . A
C1058 H1064 0.928 . S
C1059 C1060 1.401 . A
C1059 H1065 0.930 . S
C1060 C1061 1.389 . A
C1060 H1066 0.931 . S
C1061 C1062 1.372 1_554 A
C1061 H1067 0.929 . S
C1062 H1068 0.931 . S
H1063 C1070 0.930 . S
C1069 C1070 1.344 . A
C1070 C1071 1.403 1_556 A
C1072 C1073 1.487 . S
C1072 C1074 1.390 . A
C1072 C1087 1.382 . A
C1073 C1078 1.403 . A
C1073 C1085 1.412 1_655 A
C1074 C1075 1.404 . A
C1074 H1080 0.928 . S
C1075 C1076 1.401 . A
C1075 H1081 0.930 . S
C1076 C1077 1.389 . A
C1076 H1082 0.931 . S
C1077 C1078 1.372 . A
C1077 H1083 0.929 . S
C1078 H1084 0.931 . S
H1079 C1086 0.930 . S
C1085 C1086 1.344 . A
C1086 C1087 1.403 1_455 A
C333 C166 1.247 . S
C335 C6 1.197 . S
C349 C26 1.288 . S
C351 C186 1.252 . S
C365 C46 1.252 . S
C367 C106 1.201 . S
C381 C66 1.222 . S
C383 C286 1.188 . S
C397 C246 1.222 . S
C399 C86 1.187 . S
C413 C126 1.255 . S
C415 C266 1.231 . S
C429 C306 1.289 . S
C431 C146 1.251 . S
C445 C206 1.223 . S
C447 C226 1.191 . S
C461 C229 1.315 . S
C463 C9 1.331 . S
C477 C29 1.402 . S
C479 C249 1.327 . S
C493 C49 1.392 . S
C495 C289 1.309 . S
C509 C69 1.277 . S
C511 C109 1.246 . S
C525 C89 1.401 . S
C527 C189 1.324 . S
C541 C129 1.292 . S
C543 C149 1.304 . S
C557 C169 1.285 . S
C559 C209 1.294 . S
C573 C269 1.403 . S
C575 C309 1.329 . S
C589 C19 1.618 . S
C591 C22 1.328 . S
C605 C222 1.364 . S
C607 C39 1.650 . S
C621 C302 1.520 . S
C623 C59 1.556 . S
C637 C142 1.422 . S
C639 C79 1.665 . S
C653 C202 1.404 . S
C655 C99 1.666 . S
C669 C119 1.580 . S
C671 C122 1.361 . S
C685 C62 1.509 . S
C687 C139 1.530 . S
C701 C102 1.491 . S
C703 C159 1.518 . S
C717 C179 1.647 . S
C719 C82 1.469 . S
C733 C199 1.595 . S
C735 C162 1.345 . S
C749 C182 1.515 . S
C751 C219 1.539 . S
C765 C239 1.585 . S
C767 C242 1.355 . S
C781 C2 1.466 . S
C783 C259 1.514 . S
C797 C279 1.577 . S
C799 C42 1.365 . S
C813 C262 1.463 . S
C815 C299 1.514 . S
C829 C282 1.363 . S
C831 C319 1.648 . S
C845 C305 1.259 . S
C847 C5 1.249 . S
C861 C45 1.320 . S
C863 C25 1.200 . S
C877 C85 1.236 . S
C879 C65 1.286 . S
C893 C105 1.279 . S
C895 C185 1.228 . S
C909 C205 1.268 . S
C911 C125 1.335 . S
C925 C145 1.236 . S
C927 C165 1.328 . S
C941 C225 1.360 . S
C943 C265 1.196 . S
C957 C245 1.352 . S
C959 C285 1.194 . S
C973 C284 2.175 . S
C975 C4 2.170 . S
C989 C24 2.208 . S
C991 C304 2.130 . S
C1005 C44 2.190 . S
C1007 C224 2.128 . S
C1021 C64 2.206 . S
C1023 C204 2.141 . S
C1037 C84 2.189 . S
C1039 C144 2.128 . S
C1053 C104 2.170 . S
C1055 C164 2.170 . S
C1069 C184 2.202 . S
C1071 C124 2.125 . S
C1085 C244 2.165 . S
C1087 C264 2.152 . S
