# Generated by pormake.
# Topology whc, (6)-cn, num edge types: 1
# Building blocks:
#     Node 0, Type 0, BuildingBlock: N102, # of connection points: 6
#     Node 1, Type 0, BuildingBlock: N102, # of connection points: 6
#     Node 2, Type 0, BuildingBlock: N102, # of connection points: 6
#     Node 3, Type 0, BuildingBlock: N102, # of connection points: 6
#     Node 4, Type 0, BuildingBlock: N102, # of connection points: 6
#     Node 5, Type 0, BuildingBlock: N102, # of connection points: 6
#     Node 6, Type 0, BuildingBlock: N102, # of connection points: 6
#     Node 7, Type 0, BuildingBlock: N102, # of connection points: 6
#     Edge 8, Type (0, 0), BuildingBlock: E154, # of connection points: 2
#     Edge 9, Type (0, 0), BuildingBlock: E154, # of connection points: 2
#     Edge 10, Type (0, 0), BuildingBlock: E154, # of connection points: 2
#     Edge 11, Type (0, 0), BuildingBlock: E154, # of connection points: 2
#     Edge 12, Type (0, 0), BuildingBlock: E154, # of connection points: 2
#     Edge 13, Type (0, 0), BuildingBlock: E154, # of connection points: 2
#     Edge 14, Type (0, 0), BuildingBlock: E154, # of connection points: 2
#     Edge 15, Type (0, 0), BuildingBlock: E154, # of connection points: 2
#     Edge 16, Type (0, 0), BuildingBlock: E154, # of connection points: 2
#     Edge 17, Type (0, 0), BuildingBlock: E154, # of connection points: 2
#     Edge 18, Type (0, 0), BuildingBlock: E154, # of connection points: 2
#     Edge 19, Type (0, 0), BuildingBlock: E154, # of connection points: 2
#     Edge 20, Type (0, 0), BuildingBlock: E154, # of connection points: 2
#     Edge 21, Type (0, 0), BuildingBlock: E154, # of connection points: 2
#     Edge 22, Type (0, 0), BuildingBlock: E154, # of connection points: 2
#     Edge 23, Type (0, 0), BuildingBlock: E154, # of connection points: 2
#     Edge 24, Type (0, 0), BuildingBlock: E154, # of connection points: 2
#     Edge 25, Type (0, 0), BuildingBlock: E154, # of connection points: 2
#     Edge 26, Type (0, 0), BuildingBlock: E154, # of connection points: 2
#     Edge 27, Type (0, 0), BuildingBlock: E154, # of connection points: 2
#     Edge 28, Type (0, 0), BuildingBlock: E154, # of connection points: 2
#     Edge 29, Type (0, 0), BuildingBlock: E154, # of connection points: 2
#     Edge 30, Type (0, 0), BuildingBlock: E154, # of connection points: 2
#     Edge 31, Type (0, 0), BuildingBlock: E154, # of connection points: 2
# Relax obj value: 0.275
# Max RMSD: 0.302
# Mean RMSD: 0.302
data_whc+N102+E154
_symmetry_space_group_name_H-M    P1
_symmetry_Int_Tables_number       1
_symmetry_cell_setting            triclinic
loop_
_symmetry_equiv_pos_as_xyz
'x, y, z'
_cell_length_a     34.696
_cell_length_b     34.696
_cell_length_c     33.724
_cell_angle_alpha  90.000
_cell_angle_beta   90.000
_cell_angle_gamma  90.000
loop_
_atom_site_label
_atom_site_type_symbol
_atom_site_fract_x
_atom_site_fract_y
_atom_site_fract_z
_atom_type_partial_charge
O0 O 0.77610 0.42185 0.85350 0.00000
Be1 Be 0.74904 0.49779 0.82521 0.00000
Be2 Be 0.76368 0.47576 0.94138 0.00000
O3 O 0.74051 0.52145 0.78476 0.00000
Be4 Be 0.80366 0.45843 0.86485 0.00000
O5 O 0.79129 0.50085 0.75230 0.00000
O6 O 0.78463 0.47146 0.98406 0.00000
Be7 Be 0.70906 0.51512 0.90173 0.00000
O8 O 0.74147 0.50394 0.01788 0.00000
O9 O 0.68661 0.47377 0.90412 0.00000
O10 O 0.73039 0.45479 0.82032 0.00000
O11 O 0.84800 0.44399 0.86277 0.00000
O12 O 0.85578 0.45439 0.79911 0.00000
H13 H 0.81114 0.51154 0.82943 0.00000
H14 H 0.75029 0.53792 0.94589 0.00000
O15 O 0.67714 0.54892 0.90604 0.00000
O16 O 0.67698 0.55041 0.97107 0.00000
H17 H 0.71598 0.54235 0.84764 0.00000
H18 H 0.81998 0.46742 0.92312 0.00000
O19 O 0.73232 0.44083 0.93729 0.00000
O20 O 0.79270 0.49381 0.83770 0.00000
O21 O 0.74290 0.51540 0.93299 0.00000
O22 O 0.72449 0.51899 0.85794 0.00000
O23 O 0.79634 0.46721 0.91010 0.00000
C24 C 0.76112 0.51840 0.75332 0.00000
C25 C 0.77011 0.48401 0.01659 0.00000
C26 C 0.86737 0.44184 0.83044 0.00000
C27 C 0.66386 0.56056 0.93947 0.00000
C28 C 0.74585 0.42309 0.83170 0.00000
C29 C 0.69836 0.44368 0.92259 0.00000
O30 O 0.52624 0.31339 0.59589 0.00000
Be31 Be 0.52424 0.23632 0.55862 0.00000
Be32 Be 0.50221 0.25096 0.67479 0.00000
O33 O 0.52854 0.21537 0.51594 0.00000
Be34 Be 0.48488 0.29095 0.59827 0.00000
O35 O 0.49606 0.25853 0.48212 0.00000
O36 O 0.47855 0.25949 0.71525 0.00000
Be37 Be 0.54157 0.19634 0.63515 0.00000
O38 O 0.49915 0.20871 0.74770 0.00000
O39 O 0.57815 0.22390 0.64650 0.00000
O40 O 0.55917 0.26768 0.56271 0.00000
O41 O 0.45108 0.32286 0.59396 0.00000
O42 O 0.44959 0.32302 0.52893 0.00000
H43 H 0.46208 0.24971 0.55411 0.00000
H44 H 0.48846 0.18886 0.67057 0.00000
O45 O 0.55601 0.15200 0.63723 0.00000
O46 O 0.54561 0.14422 0.70089 0.00000
H47 H 0.53258 0.18002 0.57688 0.00000
H48 H 0.45765 0.28402 0.65236 0.00000
O49 O 0.54522 0.26961 0.67968 0.00000
O50 O 0.48460 0.25710 0.56701 0.00000
O51 O 0.50618 0.20730 0.66231 0.00000
O52 O 0.53279 0.20365 0.58990 0.00000
O53 O 0.48101 0.27551 0.64206 0.00000
C54 C 0.51599 0.22989 0.48342 0.00000
C55 C 0.48160 0.23888 0.74668 0.00000
C56 C 0.43944 0.33614 0.56053 0.00000
C57 C 0.55816 0.13263 0.66957 0.00000
C58 C 0.55632 0.30164 0.57741 0.00000
C59 C 0.57691 0.25415 0.66830 0.00000
O60 O 0.31339 0.52623 0.90412 0.00000
Be61 Be 0.23632 0.52424 0.94138 0.00000
Be62 Be 0.25096 0.50221 0.82521 0.00000
O63 O 0.21537 0.52854 0.98406 0.00000
Be64 Be 0.29095 0.48488 0.90173 0.00000
O65 O 0.25853 0.49606 0.01788 0.00000
O66 O 0.25949 0.47855 0.78476 0.00000
Be67 Be 0.19634 0.54157 0.86485 0.00000
O68 O 0.20871 0.49914 0.75230 0.00000
O69 O 0.22390 0.57815 0.85350 0.00000
O70 O 0.26768 0.55917 0.93729 0.00000
O71 O 0.32286 0.45108 0.90604 0.00000
O72 O 0.32302 0.44959 0.97107 0.00000
H73 H 0.24971 0.46207 0.94589 0.00000
H74 H 0.18886 0.48845 0.82943 0.00000
O75 O 0.15200 0.55601 0.86277 0.00000
O76 O 0.14422 0.54561 0.79911 0.00000
H77 H 0.18002 0.53258 0.92312 0.00000
H78 H 0.28402 0.45765 0.84764 0.00000
O79 O 0.26961 0.54521 0.82032 0.00000
O80 O 0.25710 0.48460 0.93299 0.00000
O81 O 0.20730 0.50618 0.83769 0.00000
O82 O 0.20365 0.53279 0.91010 0.00000
O83 O 0.27551 0.48101 0.85794 0.00000
C84 C 0.22989 0.51599 0.01658 0.00000
C85 C 0.23888 0.48160 0.75332 0.00000
C86 C 0.33614 0.43944 0.93947 0.00000
C87 C 0.13263 0.55816 0.83043 0.00000
C88 C 0.30164 0.55632 0.92259 0.00000
C89 C 0.25415 0.57690 0.83170 0.00000
O90 O 0.54521 0.73039 0.17968 0.00000
Be91 Be 0.54157 0.80366 0.13515 0.00000
Be92 Be 0.48488 0.70905 0.09827 0.00000
O93 O 0.55601 0.84800 0.13723 0.00000
Be94 Be 0.50221 0.74904 0.17479 0.00000
O95 O 0.54561 0.85578 0.20089 0.00000
O96 O 0.45108 0.67714 0.09396 0.00000
Be97 Be 0.52424 0.76368 0.05862 0.00000
O98 O 0.44959 0.67698 0.02893 0.00000
O99 O 0.55917 0.73232 0.06271 0.00000
O100 O 0.57815 0.77610 0.14650 0.00000
O101 O 0.47855 0.74051 0.21524 0.00000
O102 O 0.49914 0.79129 0.24770 0.00000
H103 H 0.48845 0.81114 0.17057 0.00000
H104 H 0.46207 0.75029 0.05411 0.00000
O105 O 0.52854 0.78463 0.01594 0.00000
O106 O 0.49606 0.74147 0.98212 0.00000
H107 H 0.53258 0.81998 0.07688 0.00000
H108 H 0.45765 0.71598 0.15236 0.00000
O109 O 0.52623 0.68661 0.09588 0.00000
O110 O 0.50618 0.79269 0.16230 0.00000
O111 O 0.48460 0.74290 0.06701 0.00000
O112 O 0.53279 0.79635 0.08990 0.00000
O113 O 0.48101 0.72449 0.14206 0.00000
C114 C 0.55816 0.86737 0.16957 0.00000
C115 C 0.43944 0.66386 0.06053 0.00000
C116 C 0.48160 0.76112 0.24668 0.00000
C117 C 0.51599 0.77011 0.98342 0.00000
C118 C 0.57691 0.74584 0.16830 0.00000
C119 C 0.55632 0.69836 0.07741 0.00000
O120 O 0.45479 0.26961 0.17968 0.00000
Be121 Be 0.45843 0.19634 0.13515 0.00000
Be122 Be 0.51512 0.29095 0.09827 0.00000
O123 O 0.44399 0.15200 0.13723 0.00000
Be124 Be 0.49779 0.25096 0.17479 0.00000
O125 O 0.45439 0.14422 0.20089 0.00000
O126 O 0.54892 0.32286 0.09396 0.00000
Be127 Be 0.47576 0.23632 0.05863 0.00000
O128 O 0.55041 0.32302 0.02893 0.00000
O129 O 0.44083 0.26768 0.06271 0.00000
O130 O 0.42185 0.22390 0.14650 0.00000
O131 O 0.52145 0.25949 0.21524 0.00000
O132 O 0.50086 0.20871 0.24770 0.00000
H133 H 0.51155 0.18886 0.17057 0.00000
H134 H 0.53793 0.24971 0.05411 0.00000
O135 O 0.47146 0.21537 0.01594 0.00000
O136 O 0.50394 0.25853 0.98212 0.00000
H137 H 0.46742 0.18002 0.07688 0.00000
H138 H 0.54235 0.28402 0.15237 0.00000
O139 O 0.47377 0.31339 0.09589 0.00000
O140 O 0.49382 0.20731 0.16230 0.00000
O141 O 0.51540 0.25710 0.06701 0.00000
O142 O 0.46721 0.20365 0.08990 0.00000
O143 O 0.51899 0.27551 0.14206 0.00000
C144 C 0.44184 0.13263 0.16957 0.00000
C145 C 0.56057 0.33614 0.06053 0.00000
C146 C 0.51840 0.23888 0.24668 0.00000
C147 C 0.48401 0.22989 0.98342 0.00000
C148 C 0.42309 0.25416 0.16830 0.00000
C149 C 0.44368 0.30164 0.07741 0.00000
O150 O 0.26961 0.45479 0.32032 0.00000
Be151 Be 0.19634 0.45843 0.36485 0.00000
Be152 Be 0.29095 0.51512 0.40173 0.00000
O153 O 0.15200 0.44399 0.36277 0.00000
Be154 Be 0.25096 0.49779 0.32521 0.00000
O155 O 0.14422 0.45439 0.29911 0.00000
O156 O 0.32286 0.54892 0.40604 0.00000
Be157 Be 0.23632 0.47576 0.44138 0.00000
O158 O 0.32302 0.55041 0.47107 0.00000
O159 O 0.26768 0.44083 0.43729 0.00000
O160 O 0.22390 0.42185 0.35350 0.00000
O161 O 0.25949 0.52145 0.28476 0.00000
O162 O 0.20871 0.50085 0.25230 0.00000
H163 H 0.18886 0.51155 0.32943 0.00000
H164 H 0.24971 0.53793 0.44589 0.00000
O165 O 0.21537 0.47146 0.48406 0.00000
O166 O 0.25853 0.50394 0.51788 0.00000
H167 H 0.18002 0.46742 0.42312 0.00000
H168 H 0.28402 0.54235 0.34764 0.00000
O169 O 0.31339 0.47377 0.40411 0.00000
O170 O 0.20731 0.49382 0.33770 0.00000
O171 O 0.25710 0.51540 0.43299 0.00000
O172 O 0.20365 0.46721 0.41010 0.00000
O173 O 0.27551 0.51899 0.35794 0.00000
C174 C 0.13263 0.44184 0.33043 0.00000
C175 C 0.33614 0.56056 0.43947 0.00000
C176 C 0.23888 0.51840 0.25332 0.00000
C177 C 0.22989 0.48401 0.51658 0.00000
C178 C 0.25416 0.42309 0.33170 0.00000
C179 C 0.30164 0.44368 0.42259 0.00000
O180 O 0.47377 0.68661 0.59588 0.00000
Be181 Be 0.47576 0.76368 0.55862 0.00000
Be182 Be 0.49779 0.74904 0.67479 0.00000
O183 O 0.47146 0.78463 0.51594 0.00000
Be184 Be 0.51512 0.70905 0.59827 0.00000
O185 O 0.50394 0.74147 0.48212 0.00000
O186 O 0.52145 0.74051 0.71524 0.00000
Be187 Be 0.45843 0.80366 0.63515 0.00000
O188 O 0.50086 0.79129 0.74770 0.00000
O189 O 0.42185 0.77610 0.64650 0.00000
O190 O 0.44083 0.73232 0.56271 0.00000
O191 O 0.54892 0.67714 0.59396 0.00000
O192 O 0.55041 0.67698 0.52893 0.00000
H193 H 0.53793 0.75029 0.55411 0.00000
H194 H 0.51155 0.81114 0.67057 0.00000
O195 O 0.44399 0.84800 0.63723 0.00000
O196 O 0.45439 0.85578 0.70089 0.00000
H197 H 0.46742 0.81998 0.57688 0.00000
H198 H 0.54235 0.71598 0.65236 0.00000
O199 O 0.45479 0.73039 0.67968 0.00000
O200 O 0.51540 0.74290 0.56701 0.00000
O201 O 0.49382 0.79270 0.66231 0.00000
O202 O 0.46721 0.79635 0.58990 0.00000
O203 O 0.51899 0.72449 0.64206 0.00000
C204 C 0.48401 0.77011 0.48342 0.00000
C205 C 0.51840 0.76112 0.74668 0.00000
C206 C 0.56056 0.66386 0.56053 0.00000
C207 C 0.44184 0.86737 0.66957 0.00000
C208 C 0.44368 0.69836 0.57741 0.00000
C209 C 0.42309 0.74585 0.66830 0.00000
O210 O 0.73039 0.54521 0.32032 0.00000
Be211 Be 0.80366 0.54157 0.36485 0.00000
Be212 Be 0.70905 0.48488 0.40173 0.00000
O213 O 0.84800 0.55601 0.36277 0.00000
Be214 Be 0.74904 0.50221 0.32521 0.00000
O215 O 0.85578 0.54561 0.29911 0.00000
O216 O 0.67714 0.45108 0.40604 0.00000
Be217 Be 0.76368 0.52424 0.44137 0.00000
O218 O 0.67698 0.44959 0.47107 0.00000
O219 O 0.73232 0.55917 0.43729 0.00000
O220 O 0.77610 0.57815 0.35350 0.00000
O221 O 0.74050 0.47855 0.28476 0.00000
O222 O 0.79129 0.49914 0.25230 0.00000
H223 H 0.81114 0.48845 0.32943 0.00000
H224 H 0.75029 0.46207 0.44589 0.00000
O225 O 0.78463 0.52854 0.48406 0.00000
O226 O 0.74147 0.49606 0.51788 0.00000
H227 H 0.81997 0.53258 0.42312 0.00000
H228 H 0.71598 0.45765 0.34764 0.00000
O229 O 0.68661 0.52623 0.40411 0.00000
O230 O 0.79269 0.50618 0.33770 0.00000
O231 O 0.74290 0.48460 0.43299 0.00000
O232 O 0.79634 0.53279 0.41010 0.00000
O233 O 0.72449 0.48101 0.35794 0.00000
C234 C 0.86737 0.55816 0.33043 0.00000
C235 C 0.66386 0.43943 0.43947 0.00000
C236 C 0.76112 0.48160 0.25332 0.00000
C237 C 0.77011 0.51599 0.51658 0.00000
C238 C 0.74584 0.57691 0.33170 0.00000
C239 C 0.69836 0.55632 0.42259 0.00000
H240 H 0.71357 0.34304 0.82558 0.00000
H241 H 0.69118 0.30873 0.77211 0.00000
H242 H 0.66891 0.40882 0.71551 0.00000
H243 H 0.69335 0.44196 0.76856 0.00000
H244 H 0.68331 0.36708 0.66134 0.00000
H245 H 0.65987 0.33520 0.60651 0.00000
H246 H 0.62712 0.27750 0.61649 0.00000
H247 H 0.63838 0.28979 0.73377 0.00000
C248 C 0.70519 0.39656 0.80411 0.00000
C249 C 0.70457 0.35639 0.80354 0.00000
C250 C 0.69093 0.33555 0.77115 0.00000
C251 C 0.67701 0.35370 0.73775 0.00000
C252 C 0.67795 0.39539 0.73749 0.00000
C253 C 0.69225 0.41517 0.76970 0.00000
C254 C 0.66083 0.33412 0.70318 0.00000
C255 C 0.66839 0.34512 0.66515 0.00000
C256 C 0.65541 0.32574 0.63188 0.00000
C257 C 0.63562 0.29205 0.63796 0.00000
C258 C 0.62852 0.28001 0.67565 0.00000
C259 C 0.64202 0.29970 0.70843 0.00000
H260 H 0.26041 0.61935 0.76261 0.00000
H261 H 0.31079 0.64148 0.72479 0.00000
H262 H 0.37159 0.66116 0.82483 0.00000
H263 H 0.32151 0.63700 0.86140 0.00000
H264 H 0.42162 0.64664 0.77873 0.00000
H265 H 0.47347 0.66975 0.74335 0.00000
H266 H 0.46117 0.70363 0.68518 0.00000
H267 H 0.34784 0.69399 0.70409 0.00000
C268 C 0.28432 0.62648 0.81654 0.00000
C269 C 0.28267 0.62778 0.77525 0.00000
C270 C 0.31320 0.64126 0.75228 0.00000
C271 C 0.34684 0.65435 0.76931 0.00000
C272 C 0.34937 0.65270 0.81210 0.00000
C273 C 0.31896 0.63856 0.83396 0.00000
C274 C 0.37959 0.67032 0.74756 0.00000
C275 C 0.41696 0.66198 0.75664 0.00000
C276 C 0.44840 0.67477 0.73510 0.00000
C277 C 0.44099 0.69522 0.70116 0.00000
C278 C 0.40387 0.70310 0.69099 0.00000
C279 C 0.37291 0.68979 0.71281 0.00000
H280 H 0.59050 0.70911 0.23577 0.00000
H281 H 0.64009 0.68774 0.27513 0.00000
H282 H 0.70683 0.67668 0.17774 0.00000
H283 H 0.65737 0.70001 0.13974 0.00000
H284 H 0.75359 0.69141 0.22728 0.00000
H285 H 0.80482 0.66927 0.26424 0.00000
H286 H 0.79156 0.63175 0.31976 0.00000
H287 H 0.67896 0.63628 0.29507 0.00000
C288 C 0.61745 0.70613 0.18296 0.00000
C289 C 0.61381 0.70256 0.22397 0.00000
C290 C 0.64386 0.68954 0.24786 0.00000
C291 C 0.67899 0.67920 0.23207 0.00000
C292 C 0.68356 0.68325 0.18963 0.00000
C293 C 0.65354 0.69687 0.16688 0.00000
C294 C 0.71146 0.66389 0.25475 0.00000
C295 C 0.74871 0.67469 0.24824 0.00000
C296 C 0.77970 0.66248 0.27079 0.00000
C297 C 0.77176 0.63990 0.30314 0.00000
C298 C 0.73469 0.62951 0.31078 0.00000
C299 C 0.70416 0.64228 0.28800 0.00000
H300 H 0.37615 0.25812 0.23520 0.00000
H301 H 0.32586 0.29418 0.25933 0.00000
H302 H 0.35303 0.37881 0.18207 0.00000
H303 H 0.40163 0.34116 0.15738 0.00000
H304 H 0.28504 0.38687 0.18804 0.00000
H305 H 0.23559 0.42533 0.21062 0.00000
H306 H 0.21981 0.42223 0.27759 0.00000
H307 H 0.30594 0.34781 0.29588 0.00000
C308 C 0.39566 0.29558 0.19423 0.00000
C309 C 0.37165 0.28238 0.22447 0.00000
C310 C 0.34117 0.30426 0.23918 0.00000
C311 C 0.33322 0.34051 0.22464 0.00000
C312 C 0.35743 0.35452 0.19282 0.00000
C313 C 0.38691 0.33192 0.17842 0.00000
C314 C 0.30284 0.36593 0.23938 0.00000
C315 C 0.27989 0.38740 0.21510 0.00000
C316 C 0.24944 0.40986 0.22804 0.00000
C317 C 0.24063 0.40836 0.26764 0.00000
C318 C 0.26255 0.38641 0.29231 0.00000
C319 C 0.29267 0.36400 0.27866 0.00000
H320 H 0.79599 0.51891 0.06235 0.00000
H321 H 0.79974 0.50055 0.12765 0.00000
H322 H 0.73492 0.40705 0.10252 0.00000
H323 H 0.73355 0.42525 0.03728 0.00000
H324 H 0.77390 0.38369 0.15555 0.00000
H325 H 0.77565 0.36318 0.22047 0.00000
H326 H 0.77636 0.40976 0.27009 0.00000
H327 H 0.76820 0.49278 0.18834 0.00000
C328 C 0.76348 0.47502 0.04212 0.00000
C329 C 0.78362 0.49644 0.07030 0.00000
C330 C 0.78586 0.48536 0.10994 0.00000
C331 C 0.76794 0.45248 0.12354 0.00000
C332 C 0.74737 0.42952 0.09464 0.00000
C333 C 0.74626 0.44087 0.05552 0.00000
C334 C 0.76757 0.43958 0.16480 0.00000
C335 C 0.77209 0.40199 0.17561 0.00000
C336 C 0.77422 0.38928 0.21443 0.00000
C337 C 0.77405 0.41683 0.24359 0.00000
C338 C 0.77050 0.45461 0.23346 0.00000
C339 C 0.76869 0.46665 0.19445 0.00000
H340 H 0.55841 0.27493 0.29330 0.00000
H341 H 0.56248 0.24777 0.35525 0.00000
H342 H 0.46945 0.18232 0.33005 0.00000
H343 H 0.46757 0.20860 0.26780 0.00000
H344 H 0.50402 0.14150 0.37442 0.00000
H345 H 0.50550 0.11297 0.43607 0.00000
H346 H 0.52563 0.15011 0.48963 0.00000
H347 H 0.53614 0.24182 0.41871 0.00000
C348 C 0.51195 0.24596 0.27345 0.00000
C349 C 0.54043 0.25637 0.30058 0.00000
C350 C 0.54288 0.23996 0.33819 0.00000
C351 C 0.51694 0.21249 0.35076 0.00000
C352 C 0.48750 0.20084 0.32283 0.00000
C353 C 0.48625 0.21710 0.28559 0.00000
C354 C 0.51653 0.19493 0.39015 0.00000
C355 C 0.51001 0.15665 0.39632 0.00000
C356 C 0.51178 0.13885 0.43299 0.00000
C357 C 0.52310 0.16101 0.46456 0.00000
C358 C 0.53066 0.19910 0.45894 0.00000
C359 C 0.52897 0.21620 0.42199 0.00000
H360 H 0.20765 0.56392 0.05838 0.00000
H361 H 0.23571 0.56360 0.12004 0.00000
H362 H 0.25164 0.44872 0.11044 0.00000
H363 H 0.22535 0.45054 0.04819 0.00000
H364 H 0.30501 0.46686 0.15086 0.00000
H365 H 0.33311 0.46360 0.21263 0.00000
H366 H 0.31067 0.50518 0.26157 0.00000
H367 H 0.23122 0.54614 0.18679 0.00000
C368 C 0.21207 0.50725 0.04626 0.00000
C369 C 0.21640 0.54069 0.06875 0.00000
C370 C 0.23335 0.54052 0.10619 0.00000
C371 C 0.24665 0.50696 0.12321 0.00000
C372 C 0.24296 0.47201 0.10011 0.00000
C373 C 0.22670 0.47323 0.06288 0.00000
C374 C 0.26340 0.50398 0.16286 0.00000
C375 C 0.29486 0.48187 0.17118 0.00000
C376 C 0.31272 0.48034 0.20783 0.00000
C377 C 0.29901 0.50449 0.23674 0.00000
C378 C 0.26820 0.52750 0.22883 0.00000
C379 C 0.25100 0.52875 0.19191 0.00000
H380 H 0.50481 0.81853 0.93551 0.00000
H381 H 0.49441 0.79494 0.87280 0.00000
H382 H 0.55674 0.70051 0.90073 0.00000
H383 H 0.56476 0.72406 0.96362 0.00000
H384 H 0.51215 0.67493 0.85383 0.00000
H385 H 0.50367 0.64913 0.79151 0.00000
H386 H 0.50072 0.69130 0.73796 0.00000
H387 H 0.52001 0.78035 0.81051 0.00000
C388 C 0.53690 0.77480 0.95681 0.00000
C389 C 0.51535 0.79483 0.92863 0.00000
C390 C 0.50908 0.78057 0.89056 0.00000
C391 C 0.52415 0.74573 0.87856 0.00000
C392 C 0.54611 0.72422 0.90755 0.00000
C393 C 0.55123 0.73875 0.94519 0.00000
C394 C 0.52024 0.72940 0.83882 0.00000
C395 C 0.51302 0.69134 0.83204 0.00000
C396 C 0.50685 0.67553 0.79491 0.00000
C397 C 0.50571 0.70045 0.76339 0.00000
C398 C 0.51192 0.73870 0.76956 0.00000
C399 C 0.51775 0.75388 0.80695 0.00000
H400 H 0.45123 0.25766 0.94793 0.00000
H401 H 0.44016 0.24813 0.88152 0.00000
H402 H 0.52663 0.17029 0.87930 0.00000
H403 H 0.53544 0.17910 0.94597 0.00000
H404 H 0.48490 0.14587 0.82907 0.00000
H405 H 0.47627 0.13471 0.76234 0.00000
H406 H 0.45708 0.18613 0.72271 0.00000
H407 H 0.46154 0.25656 0.81641 0.00000
C408 C 0.49529 0.22045 0.95480 0.00000
C409 C 0.46650 0.24011 0.93425 0.00000
C410 C 0.45980 0.23440 0.89395 0.00000
C411 C 0.48162 0.20896 0.87203 0.00000
C412 C 0.51128 0.18783 0.89293 0.00000
C413 C 0.51674 0.19360 0.93294 0.00000
C414 C 0.47752 0.20235 0.82944 0.00000
C415 C 0.47927 0.16665 0.81265 0.00000
C416 C 0.47316 0.15929 0.77282 0.00000
C417 C 0.46241 0.18982 0.74949 0.00000
C418 C 0.45958 0.22557 0.76579 0.00000
C419 C 0.46555 0.23218 0.80572 0.00000
H420 H 0.24966 0.42806 0.70964 0.00000
H421 H 0.25717 0.44255 0.64366 0.00000
H422 H 0.22002 0.55075 0.66556 0.00000
H423 H 0.21485 0.53578 0.73147 0.00000
H424 H 0.26301 0.56106 0.61143 0.00000
H425 H 0.26916 0.57816 0.54575 0.00000
H426 H 0.25667 0.53145 0.49796 0.00000
H427 H 0.22792 0.45642 0.58291 0.00000
C428 C 0.23034 0.47969 0.72837 0.00000
C429 C 0.24361 0.45274 0.70091 0.00000
C430 C 0.24811 0.46148 0.66086 0.00000
C431 C 0.23940 0.49748 0.64611 0.00000
C432 C 0.22615 0.52605 0.67422 0.00000
C433 C 0.22265 0.51673 0.71376 0.00000
C434 C 0.24186 0.50860 0.60439 0.00000
C435 C 0.25607 0.54324 0.59211 0.00000
C436 C 0.26091 0.55360 0.55280 0.00000
C437 C 0.25296 0.52614 0.52474 0.00000
C438 C 0.23962 0.49104 0.53634 0.00000
C439 C 0.23526 0.48124 0.57579 0.00000
H440 H 0.44977 0.74351 0.44783 0.00000
H441 H 0.46674 0.73078 0.38334 0.00000
H442 H 0.52315 0.83247 0.37906 0.00000
H443 H 0.50736 0.84318 0.44406 0.00000
H444 H 0.56018 0.79440 0.33421 0.00000
H445 H 0.57822 0.78440 0.26930 0.00000
H446 H 0.53571 0.75148 0.22808 0.00000
H447 H 0.45891 0.74553 0.31623 0.00000
C448 C 0.47549 0.79526 0.45345 0.00000
C449 C 0.46447 0.76150 0.43411 0.00000
C450 C 0.47470 0.75378 0.39496 0.00000
C451 C 0.49625 0.77943 0.37303 0.00000
C452 C 0.50848 0.81439 0.39274 0.00000
C453 C 0.49850 0.82088 0.43170 0.00000
C454 C 0.50694 0.77430 0.33145 0.00000
C455 C 0.54255 0.78314 0.31697 0.00000
C456 C 0.55421 0.77640 0.27835 0.00000
C457 C 0.52882 0.75749 0.25402 0.00000
C458 C 0.49344 0.74756 0.26810 0.00000
C459 C 0.48253 0.75434 0.30688 0.00000
H460 H 0.75246 0.57224 0.70992 0.00000
H461 H 0.74440 0.55853 0.64383 0.00000
H462 H 0.77630 0.44855 0.66508 0.00000
H463 H 0.78205 0.46285 0.73110 0.00000
H464 H 0.73299 0.44064 0.61081 0.00000
H465 H 0.72616 0.42426 0.54500 0.00000
H466 H 0.74096 0.47062 0.49755 0.00000
H467 H 0.77308 0.54366 0.58304 0.00000
C468 C 0.76926 0.51963 0.72834 0.00000
C469 C 0.75734 0.54735 0.70103 0.00000
C470 C 0.75251 0.53908 0.66092 0.00000
C471 C 0.75952 0.50281 0.64595 0.00000
C472 C 0.77135 0.47346 0.67390 0.00000
C473 C 0.77520 0.48236 0.71350 0.00000
C474 C 0.75663 0.49207 0.60415 0.00000
C475 C 0.74080 0.45822 0.59161 0.00000
C476 C 0.73555 0.44835 0.55223 0.00000
C477 C 0.74486 0.47557 0.52436 0.00000
C478 C 0.75984 0.50992 0.53622 0.00000
C479 C 0.76458 0.51926 0.57575 0.00000
H480 H 0.66540 0.38543 0.91001 0.00000
H481 H 0.61635 0.37615 0.95472 0.00000
H482 H 0.66313 0.45777 0.02517 0.00000
H483 H 0.71043 0.46760 0.97891 0.00000
H484 H 0.59628 0.46435 0.04004 0.00000
H485 H 0.54854 0.45676 0.08684 0.00000
H486 H 0.52314 0.39538 0.09616 0.00000
H487 H 0.59728 0.35284 0.01668 0.00000
C488 C 0.69443 0.42676 0.93945 0.00000
C489 C 0.66509 0.39999 0.93314 0.00000
C490 C 0.63536 0.39430 0.96028 0.00000
C491 C 0.63349 0.41484 0.99518 0.00000
C492 C 0.66334 0.44319 0.00202 0.00000
C493 C 0.69197 0.44865 0.97430 0.00000
C494 C 0.60422 0.40963 0.02589 0.00000
C495 C 0.58742 0.43961 0.04550 0.00000
C496 C 0.55802 0.43567 0.07292 0.00000
C497 C 0.54355 0.39934 0.07873 0.00000
C498 C 0.55924 0.36909 0.05877 0.00000
C499 C 0.58842 0.37376 0.03131 0.00000
H500 H 0.64482 0.44747 0.48304 0.00000
H501 H 0.63493 0.39775 0.52681 0.00000
H502 H 0.60909 0.32791 0.43483 0.00000
H503 H 0.62119 0.37765 0.39198 0.00000
H504 H 0.63630 0.28345 0.48089 0.00000
H505 H 0.62529 0.23198 0.52251 0.00000
H506 H 0.59879 0.24445 0.58456 0.00000
H507 H 0.59111 0.35641 0.55776 0.00000
C508 C 0.63317 0.41900 0.43238 0.00000
C509 C 0.63758 0.42350 0.47322 0.00000
C510 C 0.63153 0.39338 0.49980 0.00000
C511 C 0.62055 0.35728 0.48705 0.00000
C512 C 0.61638 0.35184 0.44473 0.00000
C513 C 0.62325 0.38201 0.41914 0.00000
C514 C 0.61216 0.32457 0.51296 0.00000
C515 C 0.62381 0.28788 0.50486 0.00000
C516 C 0.61834 0.25682 0.52997 0.00000
C517 C 0.60219 0.26425 0.56628 0.00000
C518 C 0.59117 0.30082 0.57540 0.00000
C519 C 0.59718 0.33144 0.54995 0.00000
H520 H 0.34315 0.53971 0.94632 0.00000
H521 H 0.36396 0.57020 0.00283 0.00000
H522 H 0.32771 0.67165 0.95759 0.00000
H523 H 0.30550 0.63992 0.90261 0.00000
H524 H 0.31934 0.68209 0.02693 0.00000
H525 H 0.33971 0.71526 0.08224 0.00000
H526 H 0.39486 0.69357 0.11451 0.00000
H527 H 0.40858 0.61168 0.03233 0.00000
C528 C 0.32284 0.58612 0.91716 0.00000
C529 C 0.34004 0.56624 0.94843 0.00000
C530 C 0.35273 0.58472 0.98269 0.00000
C531 C 0.34912 0.62399 0.98744 0.00000
C532 C 0.33081 0.64509 0.95559 0.00000
C533 C 0.31793 0.62590 0.92238 0.00000
C534 C 0.36297 0.64582 0.02166 0.00000
C535 C 0.34247 0.67493 0.03876 0.00000
C536 C 0.35377 0.69448 0.07257 0.00000
C537 C 0.38661 0.68194 0.09114 0.00000
C538 C 0.40706 0.65232 0.07514 0.00000
C539 C 0.39506 0.63304 0.04148 0.00000
H540 H 0.63911 0.55078 0.98121 0.00000
H541 H 0.59797 0.59089 0.01499 0.00000
H542 H 0.62611 0.67732 0.94026 0.00000
H543 H 0.66529 0.63591 0.90608 0.00000
H544 H 0.56132 0.69350 0.95693 0.00000
H545 H 0.52113 0.73600 0.98922 0.00000
H546 H 0.51410 0.72951 0.05749 0.00000
H547 H 0.59071 0.64346 0.05763 0.00000
C548 C 0.65801 0.58864 0.94032 0.00000
C549 C 0.63664 0.57621 0.97291 0.00000
C550 C 0.61172 0.60053 0.99347 0.00000
C551 C 0.60701 0.63855 0.98272 0.00000
C552 C 0.62849 0.65188 0.94860 0.00000
C553 C 0.65237 0.62695 0.92845 0.00000
C554 C 0.58268 0.66636 0.00354 0.00000
C555 C 0.55993 0.69248 0.98445 0.00000
C556 C 0.53488 0.71752 0.00330 0.00000
C557 C 0.53128 0.71395 0.04362 0.00000
C558 C 0.55302 0.68745 0.06320 0.00000
C559 C 0.57765 0.66256 0.04371 0.00000
H560 H 0.45023 0.31076 0.03182 0.00000
H561 H 0.42979 0.36392 0.99714 0.00000
H562 H 0.34419 0.37866 0.07679 0.00000
H563 H 0.36667 0.32672 0.11170 0.00000
H564 H 0.35647 0.44342 0.05680 0.00000
H565 H 0.33355 0.49680 0.02376 0.00000
H566 H 0.33842 0.49782 0.95497 0.00000
H567 H 0.38304 0.39161 0.95621 0.00000
C568 C 0.41039 0.31159 0.07525 0.00000
C569 C 0.42886 0.32428 0.04094 0.00000
C570 C 0.41645 0.35649 0.01984 0.00000
C571 C 0.38484 0.37756 0.03175 0.00000
C572 C 0.36560 0.36522 0.06763 0.00000
C573 C 0.37898 0.33367 0.08824 0.00000
C574 C 0.36902 0.41072 0.01057 0.00000
C575 C 0.35637 0.44321 0.02922 0.00000
C576 C 0.34347 0.47591 0.00984 0.00000
C577 C 0.34588 0.47613 0.96927 0.00000
C578 C 0.35927 0.44437 0.95004 0.00000
C579 C 0.37226 0.41213 0.97003 0.00000
H580 H 0.28941 0.41017 0.46311 0.00000
H581 H 0.33500 0.40279 0.51188 0.00000
H582 H 0.41853 0.41306 0.42922 0.00000
H583 H 0.37226 0.42233 0.38176 0.00000
H584 H 0.44949 0.43929 0.48627 0.00000
H585 H 0.49727 0.43168 0.53302 0.00000
H586 H 0.48529 0.39076 0.58626 0.00000
H587 H 0.38245 0.36394 0.54050 0.00000
C588 C 0.32515 0.41604 0.41644 0.00000
C589 C 0.31533 0.41071 0.45615 0.00000
C590 C 0.34296 0.40617 0.48575 0.00000
C591 C 0.38180 0.40648 0.47723 0.00000
C592 C 0.39263 0.41255 0.43627 0.00000
C593 C 0.36464 0.41765 0.40779 0.00000
C594 C 0.41257 0.40044 0.50616 0.00000
C595 C 0.44579 0.42143 0.50648 0.00000
C596 C 0.47434 0.41796 0.53491 0.00000
C597 C 0.46736 0.39337 0.56591 0.00000
C598 C 0.43399 0.37280 0.56672 0.00000
C599 C 0.40577 0.37694 0.53814 0.00000
H600 H 0.36671 0.54968 0.47876 0.00000
H601 H 0.37439 0.59611 0.52663 0.00000
H602 H 0.37075 0.67792 0.44159 0.00000
H603 H 0.36109 0.63092 0.39497 0.00000
H604 H 0.34394 0.71140 0.49682 0.00000
H605 H 0.35202 0.75996 0.54263 0.00000
H606 H 0.39047 0.74754 0.59767 0.00000
H607 H 0.41428 0.64252 0.55553 0.00000
C608 C 0.36407 0.58447 0.43102 0.00000
C609 C 0.36756 0.57541 0.47115 0.00000
C610 C 0.37229 0.60355 0.50020 0.00000
C611 C 0.37401 0.64214 0.49072 0.00000
C612 C 0.36985 0.65220 0.44930 0.00000
C613 C 0.36452 0.62376 0.42134 0.00000
C614 C 0.38039 0.67334 0.51909 0.00000
C615 C 0.36090 0.70744 0.51778 0.00000
C616 C 0.36463 0.73650 0.54561 0.00000
C617 C 0.38779 0.72924 0.57769 0.00000
C618 C 0.40682 0.69504 0.58012 0.00000
C619 C 0.40243 0.66632 0.55210 0.00000
H620 H 0.55994 0.65897 0.51506 0.00000
H621 H 0.59205 0.61545 0.47581 0.00000
H622 H 0.66266 0.59108 0.56760 0.00000
H623 H 0.62865 0.63322 0.60640 0.00000
H624 H 0.66142 0.53103 0.53327 0.00000
H625 H 0.69566 0.48714 0.49607 0.00000
H626 H 0.70359 0.49958 0.42878 0.00000
H627 H 0.64818 0.59989 0.44106 0.00000
C628 C 0.59098 0.65223 0.56505 0.00000
C629 C 0.58061 0.64543 0.52573 0.00000
C630 C 0.60011 0.61909 0.50187 0.00000
C631 C 0.63109 0.59835 0.51594 0.00000
C632 C 0.64196 0.60455 0.55686 0.00000
C633 C 0.62168 0.63028 0.57991 0.00000
C634 C 0.65403 0.57132 0.49253 0.00000
C635 C 0.66653 0.53675 0.50684 0.00000
C636 C 0.68624 0.50962 0.48465 0.00000
C637 C 0.69133 0.51737 0.44513 0.00000
C638 C 0.67829 0.55128 0.42996 0.00000
C639 C 0.65843 0.57784 0.45265 0.00000
H640 H 0.04358 0.57517 0.84603 0.00000
H641 H 0.99654 0.53075 0.86040 0.00000
H642 H 0.05819 0.44955 0.80270 0.00000
H643 H 0.10540 0.49419 0.79077 0.00000
H644 H 0.02610 0.41194 0.85179 0.00000
H645 H 0.98027 0.36550 0.86434 0.00000
H646 H 0.91594 0.38435 0.86585 0.00000
H647 H 0.94639 0.49191 0.83715 0.00000
C648 C 0.07962 0.54045 0.81575 0.00000
C649 C 0.04661 0.54997 0.83721 0.00000
C650 C 0.01803 0.52306 0.84588 0.00000
C651 C 0.02079 0.48535 0.83341 0.00000
C652 C 0.05510 0.47473 0.81161 0.00000
C653 C 0.08319 0.50183 0.80411 0.00000
C654 C 0.99152 0.45571 0.83987 0.00000
C655 C 0.00010 0.41877 0.85033 0.00000
C656 C 0.97308 0.39078 0.85899 0.00000
C657 C 0.93517 0.40192 0.85926 0.00000
C658 C 0.92586 0.43889 0.84983 0.00000
C659 C 0.95348 0.46642 0.84156 0.00000
H660 H 0.43076 0.95291 0.64049 0.00000
H661 H 0.47843 0.99803 0.63171 0.00000
H662 H 0.53912 0.94850 0.72022 0.00000
H663 H 0.49191 0.90282 0.72667 0.00000
H664 H 0.58937 0.97313 0.67920 0.00000
H665 H 0.63846 0.01739 0.67293 0.00000
H666 H 0.62232 0.08011 0.65507 0.00000
H667 H 0.51056 0.05215 0.65633 0.00000
C668 C 0.45495 0.92310 0.68529 0.00000
C669 C 0.45246 0.95195 0.65662 0.00000
C670 C 0.48133 0.97937 0.65132 0.00000
C671 C 0.51405 0.97956 0.67447 0.00000
C672 C 0.51746 0.94951 0.70400 0.00000
C673 C 0.48875 0.92238 0.70806 0.00000
C674 C 0.54495 0.00809 0.67193 0.00000
C675 C 0.58305 0.99871 0.67419 0.00000
C676 C 0.61291 0.02474 0.66946 0.00000
C677 C 0.60320 0.06180 0.65951 0.00000
C678 C 0.56538 0.07161 0.65615 0.00000
C679 C 0.53604 0.04506 0.66074 0.00000
H680 H 0.44208 0.05377 0.20821 0.00000
H681 H 0.49137 0.00962 0.20918 0.00000
H682 H 0.51851 0.03931 0.09686 0.00000
H683 H 0.47038 0.08445 0.09777 0.00000
H684 H 0.57991 0.02128 0.12260 0.00000
H685 H 0.62971 0.97744 0.12059 0.00000
H686 H 0.62233 0.91990 0.15518 0.00000
H687 H 0.51558 0.95082 0.18640 0.00000
C688 C 0.44949 0.07367 0.15263 0.00000
C689 C 0.45733 0.05092 0.18574 0.00000
C690 C 0.48718 0.02409 0.18634 0.00000
C691 C 0.51061 0.01840 0.15387 0.00000
C692 C 0.50333 0.04214 0.11940 0.00000
C693 C 0.47403 0.06892 0.11997 0.00000
C694 C 0.54153 0.98989 0.15145 0.00000
C695 C 0.57642 0.99737 0.13452 0.00000
C696 C 0.60698 0.97176 0.13396 0.00000
C697 C 0.60227 0.93764 0.15390 0.00000
C698 C 0.56800 0.92993 0.17183 0.00000
C699 C 0.53796 0.95607 0.17224 0.00000
H700 H 0.06273 0.45723 0.37741 0.00000
H701 H 0.99990 0.47503 0.36599 0.00000
H702 H 0.02732 0.49822 0.25212 0.00000
H703 H 0.08915 0.47832 0.26414 0.00000
H704 H 0.96162 0.47897 0.24614 0.00000
H705 H 0.89948 0.49783 0.23196 0.00000
H706 H 0.86450 0.52862 0.28156 0.00000
H707 H 0.95619 0.52467 0.35321 0.00000
C708 C 0.08380 0.46663 0.32261 0.00000
C709 C 0.05576 0.46551 0.35220 0.00000
C710 C 0.01769 0.47636 0.34532 0.00000
C711 C 0.00568 0.48909 0.30864 0.00000
C712 C 0.03420 0.48991 0.27736 0.00000
C713 C 0.07146 0.47834 0.28490 0.00000
C714 C 0.96676 0.50240 0.29930 0.00000
C715 C 0.94814 0.49313 0.26500 0.00000
C716 C 0.91050 0.50335 0.25644 0.00000
C717 C 0.89020 0.52200 0.28556 0.00000
C718 C 0.90791 0.53074 0.32041 0.00000
C719 C 0.94545 0.52000 0.32841 0.00000
loop_
_geom_bond_atom_site_label_1
_geom_bond_atom_site_label_2
_geom_bond_distance
_geom_bond_site_symmetry_2
_ccdc_geom_bond_type
O0 C28 1.282 . A
O0 Be4 1.635 . S
Be1 O3 1.619 . S
Be1 O10 1.635 . S
Be1 O20 1.578 . S
Be1 O22 1.577 . S
Be2 O6 1.619 . S
Be2 O19 1.635 . S
Be2 O21 1.578 . S
Be2 O23 1.577 . S
O3 C24 1.283 . S
Be4 O11 1.619 . S
Be4 O20 1.578 . S
Be4 O23 1.577 . S
O5 C24 1.211 . D
O6 C25 1.283 1_556 S
Be7 O9 1.635 . S
Be7 O15 1.620 . S
Be7 O21 1.578 . S
Be7 O22 1.577 . S
O8 C25 1.211 . D
O9 C29 1.282 . A
O10 C28 1.282 . A
O11 C26 1.283 . S
O12 C26 1.211 . D
H13 O20 0.930 . S
H14 O21 0.930 . S
O15 C27 1.283 . S
O16 C27 1.211 . D
H17 O22 0.930 . S
H18 O23 0.930 . S
O19 C29 1.282 . A
O30 C58 1.282 . A
O30 Be34 1.635 . S
Be31 O33 1.619 . S
Be31 O40 1.635 . S
Be31 O50 1.578 . S
Be31 O52 1.577 . S
Be32 O36 1.619 . S
Be32 O49 1.635 . S
Be32 O51 1.578 . S
Be32 O53 1.577 . S
O33 C54 1.283 . S
Be34 O41 1.619 . S
Be34 O50 1.578 . S
Be34 O53 1.577 . S
O35 C54 1.211 . D
O36 C55 1.283 . S
Be37 O39 1.635 . S
Be37 O45 1.620 . S
Be37 O51 1.578 . S
Be37 O52 1.577 . S
O38 C55 1.211 . D
O39 C59 1.282 . A
O40 C58 1.282 . A
O41 C56 1.283 . S
O42 C56 1.211 . D
H43 O50 0.930 . S
H44 O51 0.930 . S
O45 C57 1.283 . S
O46 C57 1.211 . D
H47 O52 0.930 . S
H48 O53 0.930 . S
O49 C59 1.282 . A
O60 C88 1.282 . A
O60 Be64 1.635 . S
Be61 O63 1.619 . S
Be61 O70 1.635 . S
Be61 O80 1.578 . S
Be61 O82 1.577 . S
Be62 O66 1.619 . S
Be62 O79 1.635 . S
Be62 O81 1.578 . S
Be62 O83 1.577 . S
O63 C84 1.283 1_556 S
Be64 O71 1.619 . S
Be64 O80 1.578 . S
Be64 O83 1.577 . S
O65 C84 1.211 . D
O66 C85 1.283 . S
Be67 O69 1.635 . S
Be67 O75 1.620 . S
Be67 O81 1.578 . S
Be67 O82 1.577 . S
O68 C85 1.211 . D
O69 C89 1.282 . A
O70 C88 1.282 . A
O71 C86 1.283 . S
O72 C86 1.211 . D
H73 O80 0.930 . S
H74 O81 0.930 . S
O75 C87 1.283 . S
O76 C87 1.211 . D
H77 O82 0.930 . S
H78 O83 0.930 . S
O79 C89 1.282 . A
O90 C118 1.282 . A
O90 Be94 1.635 . S
Be91 O93 1.619 . S
Be91 O100 1.635 . S
Be91 O110 1.578 . S
Be91 O112 1.577 . S
Be92 O96 1.619 . S
Be92 O109 1.635 . S
Be92 O111 1.578 . S
Be92 O113 1.577 . S
O93 C114 1.283 . S
Be94 O101 1.619 . S
Be94 O110 1.578 . S
Be94 O113 1.577 . S
O95 C114 1.211 . D
O96 C115 1.283 . S
Be97 O99 1.635 . S
Be97 O105 1.620 . S
Be97 O111 1.578 . S
Be97 O112 1.577 . S
O98 C115 1.211 . D
O99 C119 1.282 . A
O100 C118 1.282 . A
O101 C116 1.283 . S
O102 C116 1.211 . D
H103 O110 0.930 . S
H104 O111 0.930 . S
O105 C117 1.283 1_554 S
O106 C117 1.211 . D
H107 O112 0.930 . S
H108 O113 0.930 . S
O109 C119 1.282 . A
O120 C148 1.282 . A
O120 Be124 1.635 . S
Be121 O123 1.619 . S
Be121 O130 1.635 . S
Be121 O140 1.578 . S
Be121 O142 1.577 . S
Be122 O126 1.619 . S
Be122 O139 1.635 . S
Be122 O141 1.578 . S
Be122 O143 1.577 . S
O123 C144 1.283 . S
Be124 O131 1.619 . S
Be124 O140 1.578 . S
Be124 O143 1.577 . S
O125 C144 1.211 . D
O126 C145 1.283 . S
Be127 O129 1.635 . S
Be127 O135 1.620 . S
Be127 O141 1.578 . S
Be127 O142 1.577 . S
O128 C145 1.211 . D
O129 C149 1.282 . A
O130 C148 1.282 . A
O131 C146 1.283 . S
O132 C146 1.211 . D
H133 O140 0.930 . S
H134 O141 0.930 . S
O135 C147 1.283 1_554 S
O136 C147 1.211 . D
H137 O142 0.930 . S
H138 O143 0.930 . S
O139 C149 1.282 . A
O150 C178 1.282 . A
O150 Be154 1.635 . S
Be151 O153 1.619 . S
Be151 O160 1.635 . S
Be151 O170 1.578 . S
Be151 O172 1.577 . S
Be152 O156 1.619 . S
Be152 O169 1.635 . S
Be152 O171 1.578 . S
Be152 O173 1.577 . S
O153 C174 1.283 . S
Be154 O161 1.619 . S
Be154 O170 1.578 . S
Be154 O173 1.577 . S
O155 C174 1.211 . D
O156 C175 1.283 . S
Be157 O159 1.635 . S
Be157 O165 1.620 . S
Be157 O171 1.578 . S
Be157 O172 1.577 . S
O158 C175 1.211 . D
O159 C179 1.282 . A
O160 C178 1.282 . A
O161 C176 1.283 . S
O162 C176 1.211 . D
H163 O170 0.930 . S
H164 O171 0.930 . S
O165 C177 1.283 . S
O166 C177 1.211 . D
H167 O172 0.930 . S
H168 O173 0.930 . S
O169 C179 1.282 . A
O180 C208 1.282 . A
O180 Be184 1.635 . S
Be181 O183 1.619 . S
Be181 O190 1.635 . S
Be181 O200 1.578 . S
Be181 O202 1.577 . S
Be182 O186 1.619 . S
Be182 O199 1.635 . S
Be182 O201 1.578 . S
Be182 O203 1.577 . S
O183 C204 1.283 . S
Be184 O191 1.619 . S
Be184 O200 1.578 . S
Be184 O203 1.577 . S
O185 C204 1.211 . D
O186 C205 1.283 . S
Be187 O189 1.635 . S
Be187 O195 1.620 . S
Be187 O201 1.578 . S
Be187 O202 1.577 . S
O188 C205 1.211 . D
O189 C209 1.282 . A
O190 C208 1.282 . A
O191 C206 1.283 . S
O192 C206 1.211 . D
H193 O200 0.930 . S
H194 O201 0.930 . S
O195 C207 1.283 . S
O196 C207 1.211 . D
H197 O202 0.930 . S
H198 O203 0.930 . S
O199 C209 1.282 . A
O210 C238 1.282 . A
O210 Be214 1.635 . S
Be211 O213 1.619 . S
Be211 O220 1.635 . S
Be211 O230 1.578 . S
Be211 O232 1.577 . S
Be212 O216 1.619 . S
Be212 O229 1.635 . S
Be212 O231 1.578 . S
Be212 O233 1.577 . S
O213 C234 1.283 . S
Be214 O221 1.619 . S
Be214 O230 1.578 . S
Be214 O233 1.577 . S
O215 C234 1.211 . D
O216 C235 1.283 . S
Be217 O219 1.635 . S
Be217 O225 1.620 . S
Be217 O231 1.578 . S
Be217 O232 1.577 . S
O218 C235 1.211 . D
O219 C239 1.282 . A
O220 C238 1.282 . A
O221 C236 1.283 . S
O222 C236 1.211 . D
H223 O230 0.930 . S
H224 O231 0.930 . S
O225 C237 1.283 . S
O226 C237 1.211 . D
H227 O232 0.930 . S
H228 O233 0.930 . S
O229 C239 1.282 . A
H240 C249 0.930 . S
H241 C250 0.931 . S
H242 C252 0.930 . S
H243 C253 0.931 . S
H244 C255 0.930 . S
H245 C256 0.930 . S
H246 C257 0.931 . S
H247 C259 0.930 . S
C248 C249 1.394 . A
C248 C253 1.402 . A
C249 C250 1.393 . A
C250 C251 1.378 . A
C251 C252 1.447 . A
C251 C254 1.462 . S
C252 C253 1.377 . A
C254 C255 1.363 . A
C254 C259 1.372 . A
C255 C256 1.384 . A
C256 C257 1.371 . A
C257 C258 1.360 . A
C258 C259 1.382 . A
H260 C269 0.930 . S
H261 C270 0.931 . S
H262 C272 0.930 . S
H263 C273 0.931 . S
H264 C275 0.930 . S
H265 C276 0.930 . S
H266 C277 0.931 . S
H267 C279 0.930 . S
C268 C269 1.394 . A
C268 C273 1.402 . A
C269 C270 1.393 . A
C270 C271 1.378 . A
C271 C272 1.447 . A
C271 C274 1.462 . S
C272 C273 1.377 . A
C274 C275 1.363 . A
C274 C279 1.372 . A
C275 C276 1.384 . A
C276 C277 1.371 . A
C277 C278 1.360 . A
C278 C279 1.382 . A
H280 C289 0.930 . S
H281 C290 0.931 . S
H282 C292 0.930 . S
H283 C293 0.931 . S
H284 C295 0.930 . S
H285 C296 0.930 . S
H286 C297 0.931 . S
H287 C299 0.930 . S
C288 C289 1.394 . A
C288 C293 1.402 . A
C289 C290 1.393 . A
C290 C291 1.378 . A
C291 C292 1.447 . A
C291 C294 1.462 . S
C292 C293 1.377 . A
C294 C295 1.363 . A
C294 C299 1.372 . A
C295 C296 1.384 . A
C296 C297 1.371 . A
C297 C298 1.360 . A
C298 C299 1.382 . A
H300 C309 0.930 . S
H301 C310 0.931 . S
H302 C312 0.930 . S
H303 C313 0.931 . S
H304 C315 0.930 . S
H305 C316 0.930 . S
H306 C317 0.931 . S
H307 C319 0.930 . S
C308 C309 1.394 . A
C308 C313 1.402 . A
C309 C310 1.393 . A
C310 C311 1.378 . A
C311 C312 1.447 . A
C311 C314 1.462 . S
C312 C313 1.377 . A
C314 C315 1.363 . A
C314 C319 1.372 . A
C315 C316 1.384 . A
C316 C317 1.371 . A
C317 C318 1.360 . A
C318 C319 1.382 . A
H320 C329 0.930 . S
H321 C330 0.931 . S
H322 C332 0.930 . S
H323 C333 0.931 . S
H324 C335 0.930 . S
H325 C336 0.930 . S
H326 C337 0.931 . S
H327 C339 0.930 . S
C328 C329 1.394 . A
C328 C333 1.402 . A
C329 C330 1.393 . A
C330 C331 1.378 . A
C331 C332 1.447 . A
C331 C334 1.462 . S
C332 C333 1.377 . A
C334 C335 1.363 . A
C334 C339 1.372 . A
C335 C336 1.384 . A
C336 C337 1.371 . A
C337 C338 1.360 . A
C338 C339 1.382 . A
H340 C349 0.930 . S
H341 C350 0.931 . S
H342 C352 0.930 . S
H343 C353 0.931 . S
H344 C355 0.930 . S
H345 C356 0.930 . S
H346 C357 0.931 . S
H347 C359 0.930 . S
C348 C349 1.394 . A
C348 C353 1.402 . A
C349 C350 1.393 . A
C350 C351 1.378 . A
C351 C352 1.447 . A
C351 C354 1.462 . S
C352 C353 1.377 . A
C354 C355 1.363 . A
C354 C359 1.372 . A
C355 C356 1.384 . A
C356 C357 1.371 . A
C357 C358 1.360 . A
C358 C359 1.382 . A
H360 C369 0.930 . S
H361 C370 0.931 . S
H362 C372 0.930 . S
H363 C373 0.931 . S
H364 C375 0.930 . S
H365 C376 0.930 . S
H366 C377 0.931 . S
H367 C379 0.930 . S
C368 C369 1.394 . A
C368 C373 1.402 . A
C369 C370 1.393 . A
C370 C371 1.378 . A
C371 C372 1.447 . A
C371 C374 1.462 . S
C372 C373 1.377 . A
C374 C375 1.363 . A
C374 C379 1.372 . A
C375 C376 1.384 . A
C376 C377 1.371 . A
C377 C378 1.360 . A
C378 C379 1.382 . A
H380 C389 0.930 . S
H381 C390 0.931 . S
H382 C392 0.930 . S
H383 C393 0.931 . S
H384 C395 0.930 . S
H385 C396 0.930 . S
H386 C397 0.931 . S
H387 C399 0.930 . S
C388 C389 1.394 . A
C388 C393 1.402 . A
C389 C390 1.393 . A
C390 C391 1.378 . A
C391 C392 1.447 . A
C391 C394 1.462 . S
C392 C393 1.377 . A
C394 C395 1.363 . A
C394 C399 1.372 . A
C395 C396 1.384 . A
C396 C397 1.371 . A
C397 C398 1.360 . A
C398 C399 1.382 . A
H400 C409 0.930 . S
H401 C410 0.931 . S
H402 C412 0.930 . S
H403 C413 0.931 . S
H404 C415 0.930 . S
H405 C416 0.930 . S
H406 C417 0.931 . S
H407 C419 0.930 . S
C408 C409 1.394 . A
C408 C413 1.402 . A
C409 C410 1.393 . A
C410 C411 1.378 . A
C411 C412 1.447 . A
C411 C414 1.462 . S
C412 C413 1.377 . A
C414 C415 1.363 . A
C414 C419 1.372 . A
C415 C416 1.384 . A
C416 C417 1.371 . A
C417 C418 1.360 . A
C418 C419 1.382 . A
H420 C429 0.930 . S
H421 C430 0.931 . S
H422 C432 0.930 . S
H423 C433 0.931 . S
H424 C435 0.930 . S
H425 C436 0.930 . S
H426 C437 0.931 . S
H427 C439 0.930 . S
C428 C429 1.394 . A
C428 C433 1.402 . A
C429 C430 1.393 . A
C430 C431 1.378 . A
C431 C432 1.447 . A
C431 C434 1.462 . S
C432 C433 1.377 . A
C434 C435 1.363 . A
C434 C439 1.372 . A
C435 C436 1.384 . A
C436 C437 1.371 . A
C437 C438 1.360 . A
C438 C439 1.382 . A
H440 C449 0.930 . S
H441 C450 0.931 . S
H442 C452 0.930 . S
H443 C453 0.931 . S
H444 C455 0.930 . S
H445 C456 0.930 . S
H446 C457 0.931 . S
H447 C459 0.930 . S
C448 C449 1.394 . A
C448 C453 1.402 . A
C449 C450 1.393 . A
C450 C451 1.378 . A
C451 C452 1.447 . A
C451 C454 1.462 . S
C452 C453 1.377 . A
C454 C455 1.363 . A
C454 C459 1.372 . A
C455 C456 1.384 . A
C456 C457 1.371 . A
C457 C458 1.360 . A
C458 C459 1.382 . A
H460 C469 0.930 . S
H461 C470 0.931 . S
H462 C472 0.930 . S
H463 C473 0.931 . S
H464 C475 0.930 . S
H465 C476 0.930 . S
H466 C477 0.931 . S
H467 C479 0.930 . S
C468 C469 1.394 . A
C468 C473 1.402 . A
C469 C470 1.393 . A
C470 C471 1.378 . A
C471 C472 1.447 . A
C471 C474 1.462 . S
C472 C473 1.377 . A
C474 C475 1.363 . A
C474 C479 1.372 . A
C475 C476 1.384 . A
C476 C477 1.371 . A
C477 C478 1.360 . A
C478 C479 1.382 . A
H480 C489 0.930 . S
H481 C490 0.931 . S
H482 C492 0.930 . S
H483 C493 0.931 . S
H484 C495 0.930 . S
H485 C496 0.930 . S
H486 C497 0.931 . S
H487 C499 0.930 . S
C488 C489 1.394 . A
C488 C493 1.402 . A
C489 C490 1.393 . A
C490 C491 1.378 . A
C491 C492 1.447 1_556 A
C491 C494 1.462 1_556 S
C492 C493 1.377 1_554 A
C494 C495 1.363 . A
C494 C499 1.372 . A
C495 C496 1.384 . A
C496 C497 1.371 . A
C497 C498 1.360 . A
C498 C499 1.382 . A
H500 C509 0.930 . S
H501 C510 0.931 . S
H502 C512 0.930 . S
H503 C513 0.931 . S
H504 C515 0.930 . S
H505 C516 0.930 . S
H506 C517 0.931 . S
H507 C519 0.930 . S
C508 C509 1.394 . A
C508 C513 1.402 . A
C509 C510 1.393 . A
C510 C511 1.378 . A
C511 C512 1.447 . A
C511 C514 1.462 . S
C512 C513 1.377 . A
C514 C515 1.363 . A
C514 C519 1.372 . A
C515 C516 1.384 . A
C516 C517 1.371 . A
C517 C518 1.360 . A
C518 C519 1.382 . A
H520 C529 0.930 . S
H521 C530 0.931 1_554 S
H522 C532 0.930 . S
H523 C533 0.931 . S
H524 C535 0.930 . S
H525 C536 0.930 . S
H526 C537 0.931 . S
H527 C539 0.930 . S
C528 C529 1.394 . A
C528 C533 1.402 . A
C529 C530 1.393 . A
C530 C531 1.378 . A
C531 C532 1.447 . A
C531 C534 1.462 1_556 S
C532 C533 1.377 . A
C534 C535 1.363 . A
C534 C539 1.372 . A
C535 C536 1.384 . A
C536 C537 1.371 . A
C537 C538 1.360 . A
C538 C539 1.382 . A
H540 C549 0.930 . S
H541 C550 0.931 1_554 S
H542 C552 0.930 . S
H543 C553 0.931 . S
H544 C555 0.930 . S
H545 C556 0.930 1_556 S
H546 C557 0.931 . S
H547 C559 0.930 . S
C548 C549 1.394 . A
C548 C553 1.402 . A
C549 C550 1.393 . A
C550 C551 1.378 . A
C551 C552 1.447 . A
C551 C554 1.462 1_556 S
C552 C553 1.377 . A
C554 C555 1.363 1_554 A
C554 C559 1.372 . A
C555 C556 1.384 1_556 A
C556 C557 1.371 . A
C557 C558 1.360 . A
C558 C559 1.382 . A
H560 C569 0.930 . S
H561 C570 0.931 1_556 S
H562 C572 0.930 . S
H563 C573 0.931 . S
H564 C575 0.930 . S
H565 C576 0.930 . S
H566 C577 0.931 . S
H567 C579 0.930 . S
C568 C569 1.394 . A
C568 C573 1.402 . A
C569 C570 1.393 . A
C570 C571 1.378 . A
C571 C572 1.447 . A
C571 C574 1.462 . S
C572 C573 1.377 . A
C574 C575 1.363 . A
C574 C579 1.372 1_554 A
C575 C576 1.384 . A
C576 C577 1.371 1_554 A
C577 C578 1.360 . A
C578 C579 1.382 . A
H580 C589 0.930 . S
H581 C590 0.931 . S
H582 C592 0.930 . S
H583 C593 0.931 . S
H584 C595 0.930 . S
H585 C596 0.930 . S
H586 C597 0.931 . S
H587 C599 0.930 . S
C588 C589 1.394 . A
C588 C593 1.402 . A
C589 C590 1.393 . A
C590 C591 1.378 . A
C591 C592 1.447 . A
C591 C594 1.462 . S
C592 C593 1.377 . A
C594 C595 1.363 . A
C594 C599 1.372 . A
C595 C596 1.384 . A
C596 C597 1.371 . A
C597 C598 1.360 . A
C598 C599 1.382 . A
H600 C609 0.930 . S
H601 C610 0.931 . S
H602 C612 0.930 . S
H603 C613 0.931 . S
H604 C615 0.930 . S
H605 C616 0.930 . S
H606 C617 0.931 . S
H607 C619 0.930 . S
C608 C609 1.394 . A
C608 C613 1.402 . A
C609 C610 1.393 . A
C610 C611 1.378 . A
C611 C612 1.447 . A
C611 C614 1.462 . S
C612 C613 1.377 . A
C614 C615 1.363 . A
C614 C619 1.372 . A
C615 C616 1.384 . A
C616 C617 1.371 . A
C617 C618 1.360 . A
C618 C619 1.382 . A
H620 C629 0.930 . S
H621 C630 0.931 . S
H622 C632 0.930 . S
H623 C633 0.931 . S
H624 C635 0.930 . S
H625 C636 0.930 . S
H626 C637 0.931 . S
H627 C639 0.930 . S
C628 C629 1.394 . A
C628 C633 1.402 . A
C629 C630 1.393 . A
C630 C631 1.378 . A
C631 C632 1.447 . A
C631 C634 1.462 . S
C632 C633 1.377 . A
C634 C635 1.363 . A
C634 C639 1.372 . A
C635 C636 1.384 . A
C636 C637 1.371 . A
C637 C638 1.360 . A
C638 C639 1.382 . A
H640 C649 0.930 . S
H641 C650 0.931 1_655 S
H642 C652 0.930 . S
H643 C653 0.931 . S
H644 C655 0.934 . S
H645 C656 0.930 . S
H646 C657 0.931 . S
H647 C659 0.930 . S
C648 C649 1.394 . A
C648 C653 1.402 . A
C649 C650 1.393 . A
C650 C651 1.378 . A
C651 C652 1.447 . A
C651 C654 1.462 1_455 S
C652 C653 1.377 . A
C654 C655 1.363 1_655 A
C654 C659 1.372 . A
C655 C656 1.381 1_455 A
C656 C657 1.371 . A
C657 C658 1.360 . A
C658 C659 1.382 . A
H660 C669 0.930 . S
H661 C670 0.931 . S
H662 C672 0.930 . S
H663 C673 0.931 . S
H664 C675 0.930 . S
H665 C676 0.930 . S
H666 C677 0.931 . S
H667 C679 0.930 . S
C668 C669 1.394 . A
C668 C673 1.402 . A
C669 C670 1.393 . A
C670 C671 1.378 . A
C671 C672 1.447 . A
C671 C674 1.462 1_565 S
C672 C673 1.377 . A
C674 C675 1.363 1_545 A
C674 C679 1.372 . A
C675 C676 1.384 1_565 A
C676 C677 1.371 . A
C677 C678 1.360 . A
C678 C679 1.382 . A
H680 C689 0.930 . S
H681 C690 0.931 . S
H682 C692 0.930 . S
H683 C693 0.931 . S
H684 C695 0.930 1_545 S
H685 C696 0.930 . S
H686 C697 0.931 . S
H687 C699 0.930 . S
C688 C689 1.394 . A
C688 C693 1.402 . A
C689 C690 1.393 . A
C690 C691 1.378 . A
C691 C692 1.447 . A
C691 C694 1.462 1_545 S
C692 C693 1.377 . A
C694 C695 1.363 . A
C694 C699 1.372 . A
C695 C696 1.384 . A
C696 C697 1.371 . A
C697 C698 1.360 . A
C698 C699 1.382 . A
H700 C709 0.930 . S
H701 C710 0.932 1_655 S
H702 C712 0.930 . S
H703 C713 0.931 . S
H704 C715 0.930 . S
H705 C716 0.930 . S
H706 C717 0.931 . S
H707 C719 0.930 . S
C708 C709 1.394 . A
C708 C713 1.402 . A
C709 C710 1.393 . A
C710 C711 1.378 . A
C711 C712 1.447 . A
C711 C714 1.462 1_455 S
C712 C713 1.377 . A
C714 C715 1.363 . A
C714 C719 1.372 . A
C715 C716 1.384 . A
C716 C717 1.371 . A
C717 C718 1.360 . A
C718 C719 1.382 . A
C248 C28 1.924 . S
C258 C59 2.018 . S
C268 C89 2.078 . S
C278 C209 1.797 . S
C288 C118 2.030 . S
C298 C238 1.995 . S
C308 C148 1.933 . S
C318 C178 1.863 . S
C328 C25 0.944 . S
C338 C236 1.196 . S
C348 C146 0.962 . S
C358 C54 1.443 . S
C368 C84 1.215 . S
C378 C176 1.348 . S
C388 C117 1.165 . S
C398 C205 1.118 . S
C408 C147 1.092 . S
C418 C55 1.101 . S
C428 C85 0.895 . S
C438 C177 0.786 . S
C448 C204 1.368 . S
C458 C116 0.955 . S
C468 C24 0.890 . S
C478 C237 0.781 . S
C488 C29 0.828 . S
C498 C145 1.146 . S
C508 C235 1.301 . S
C518 C58 1.212 . S
C528 C88 1.282 . S
C538 C115 1.290 . S
C548 C27 0.995 . S
C558 C119 0.621 . S
C568 C149 1.208 . S
C578 C86 0.895 . S
C588 C179 1.276 . S
C598 C56 1.303 . S
C608 C175 1.307 . S
C618 C208 1.287 . S
C628 C206 1.140 . S
C638 C239 0.760 . S
C648 C87 2.001 . S
C658 C26 2.135 . S
C668 C207 2.056 . S
C678 C57 2.179 . S
C688 C144 2.140 . S
C698 C114 2.199 . S
C708 C174 1.918 . S
C718 C234 1.731 . S
