# Generated by pormake.
# Topology wkj, (6)-cn, num edge types: 1
# Building blocks:
#     Node 0, Type 0, BuildingBlock: N555, # of connection points: 6
#     Node 1, Type 0, BuildingBlock: N555, # of connection points: 6
#     Node 2, Type 0, BuildingBlock: N555, # of connection points: 6
#     Node 3, Type 0, BuildingBlock: N555, # of connection points: 6
#     Node 4, Type 0, BuildingBlock: N555, # of connection points: 6
#     Node 5, Type 0, BuildingBlock: N555, # of connection points: 6
#     Node 6, Type 0, BuildingBlock: N555, # of connection points: 6
#     Node 7, Type 0, BuildingBlock: N555, # of connection points: 6
#     Node 8, Type 0, BuildingBlock: N555, # of connection points: 6
#     Node 9, Type 0, BuildingBlock: N555, # of connection points: 6
#     Node 10, Type 0, BuildingBlock: N555, # of connection points: 6
#     Node 11, Type 0, BuildingBlock: N555, # of connection points: 6
#     Edge 12, Type (0, 0), BuildingBlock: E50, # of connection points: 2
#     Edge 13, Type (0, 0), BuildingBlock: E50, # of connection points: 2
#     Edge 14, Type (0, 0), BuildingBlock: E50, # of connection points: 2
#     Edge 15, Type (0, 0), BuildingBlock: E50, # of connection points: 2
#     Edge 16, Type (0, 0), BuildingBlock: E50, # of connection points: 2
#     Edge 17, Type (0, 0), BuildingBlock: E50, # of connection points: 2
#     Edge 18, Type (0, 0), BuildingBlock: E50, # of connection points: 2
#     Edge 19, Type (0, 0), BuildingBlock: E50, # of connection points: 2
#     Edge 20, Type (0, 0), BuildingBlock: E50, # of connection points: 2
#     Edge 21, Type (0, 0), BuildingBlock: E50, # of connection points: 2
#     Edge 22, Type (0, 0), BuildingBlock: E50, # of connection points: 2
#     Edge 23, Type (0, 0), BuildingBlock: E50, # of connection points: 2
#     Edge 24, Type (0, 0), BuildingBlock: E50, # of connection points: 2
#     Edge 25, Type (0, 0), BuildingBlock: E50, # of connection points: 2
#     Edge 26, Type (0, 0), BuildingBlock: E50, # of connection points: 2
#     Edge 27, Type (0, 0), BuildingBlock: E50, # of connection points: 2
#     Edge 28, Type (0, 0), BuildingBlock: E50, # of connection points: 2
#     Edge 29, Type (0, 0), BuildingBlock: E50, # of connection points: 2
#     Edge 30, Type (0, 0), BuildingBlock: E50, # of connection points: 2
#     Edge 31, Type (0, 0), BuildingBlock: E50, # of connection points: 2
#     Edge 32, Type (0, 0), BuildingBlock: E50, # of connection points: 2
#     Edge 33, Type (0, 0), BuildingBlock: E50, # of connection points: 2
#     Edge 34, Type (0, 0), BuildingBlock: E50, # of connection points: 2
#     Edge 35, Type (0, 0), BuildingBlock: E50, # of connection points: 2
#     Edge 36, Type (0, 0), BuildingBlock: E50, # of connection points: 2
#     Edge 37, Type (0, 0), BuildingBlock: E50, # of connection points: 2
#     Edge 38, Type (0, 0), BuildingBlock: E50, # of connection points: 2
#     Edge 39, Type (0, 0), BuildingBlock: E50, # of connection points: 2
#     Edge 40, Type (0, 0), BuildingBlock: E50, # of connection points: 2
#     Edge 41, Type (0, 0), BuildingBlock: E50, # of connection points: 2
#     Edge 42, Type (0, 0), BuildingBlock: E50, # of connection points: 2
#     Edge 43, Type (0, 0), BuildingBlock: E50, # of connection points: 2
#     Edge 44, Type (0, 0), BuildingBlock: E50, # of connection points: 2
#     Edge 45, Type (0, 0), BuildingBlock: E50, # of connection points: 2
#     Edge 46, Type (0, 0), BuildingBlock: E50, # of connection points: 2
#     Edge 47, Type (0, 0), BuildingBlock: E50, # of connection points: 2
# Relax obj value: 0.574
# Max RMSD: 0.218
# Mean RMSD: 0.217
data_wkj+N555+E50
_symmetry_space_group_name_H-M    P1
_symmetry_Int_Tables_number       1
_symmetry_cell_setting            triclinic
loop_
_symmetry_equiv_pos_as_xyz
'x, y, z'
_cell_length_a     35.396
_cell_length_b     35.396
_cell_length_c     19.108
_cell_angle_alpha  90.000
_cell_angle_beta   90.000
_cell_angle_gamma  119.997
loop_
_atom_site_label
_atom_site_type_symbol
_atom_site_fract_x
_atom_site_fract_y
_atom_site_fract_z
_atom_type_partial_charge
C0 C 0.73703 0.16544 0.79824 0.00000
Tb1 Tb 0.57139 0.09022 0.68228 0.00000
Tb2 Tb 0.68732 0.07375 0.80146 0.00000
C3 C 0.67395 0.02314 0.95640 0.00000
C4 C 0.61411 0.11086 0.84140 0.00000
O5 O 0.51971 0.01970 0.63333 0.00000
O6 O 0.54622 0.01805 0.73682 0.00000
C7 C 0.52168 0.99853 0.68551 0.00000
O8 O 0.61918 0.06795 0.65082 0.00000
O9 O 0.57543 0.10755 0.56476 0.00000
O10 O 0.67385 0.05776 0.68473 0.00000
O11 O 0.59474 0.17775 0.55082 0.00000
O12 O 0.73900 0.14427 0.85041 0.00000
O13 O 0.71249 0.14592 0.74692 0.00000
O14 O 0.63952 0.09602 0.83292 0.00000
O15 O 0.68328 0.05642 0.91899 0.00000
C16 C 0.58476 0.14083 0.52733 0.00000
O17 O 0.58485 0.10621 0.79901 0.00000
O18 O 0.66397 0.98622 0.93292 0.00000
C19 C 0.64460 0.05311 0.64234 0.00000
C20 C 0.57145 0.73697 0.13157 0.00000
Tb21 Tb 0.48111 0.57133 0.01561 0.00000
Tb22 Tb 0.61348 0.68730 0.13479 0.00000
C23 C 0.65073 0.67396 0.28973 0.00000
C24 C 0.50317 0.61405 0.17473 0.00000
O25 O 0.50000 0.51968 0.96666 0.00000
O26 O 0.52816 0.54620 0.07014 0.00000
C27 C 0.52314 0.52166 0.01883 0.00000
O28 O 0.55117 0.61915 0.98415 0.00000
O29 O 0.46781 0.57536 0.89809 0.00000
O30 O 0.61601 0.67385 0.01806 0.00000
O31 O 0.41690 0.59464 0.88415 0.00000
O32 O 0.59459 0.73895 0.18375 0.00000
O33 O 0.56643 0.71244 0.08026 0.00000
O34 O 0.54342 0.63948 0.16625 0.00000
O35 O 0.62678 0.68328 0.25232 0.00000
C36 C 0.44386 0.58468 0.86066 0.00000
O37 O 0.47858 0.58479 0.13234 0.00000
O38 O 0.67769 0.66400 0.26625 0.00000
C39 C 0.59142 0.64459 0.97567 0.00000
C40 C 0.57125 0.83431 0.20180 0.00000
Tb41 Tb 0.48097 0.90969 0.31775 0.00000
Tb42 Tb 0.61331 0.92601 0.19858 0.00000
C43 C 0.65058 0.97660 0.04364 0.00000
C44 C 0.50301 0.88901 0.15864 0.00000
O45 O 0.49988 0.98023 0.36671 0.00000
O46 O 0.52803 0.98185 0.26322 0.00000
C47 C 0.52303 0.00139 0.31454 0.00000
O48 O 0.55102 0.93189 0.34922 0.00000
O49 O 0.46766 0.89236 0.43528 0.00000
O50 O 0.61585 0.94200 0.31531 0.00000
O51 O 0.41672 0.82218 0.44921 0.00000
O52 O 0.59439 0.85547 0.14962 0.00000
O53 O 0.56624 0.85385 0.25311 0.00000
O54 O 0.54326 0.90381 0.16712 0.00000
O55 O 0.62661 0.94334 0.08106 0.00000
C56 C 0.44369 0.85910 0.47270 0.00000
O57 O 0.47843 0.89370 0.20102 0.00000
O58 O 0.67755 0.01352 0.06712 0.00000
C59 C 0.59126 0.94669 0.35770 0.00000
C60 C 0.73694 0.57135 0.53512 0.00000
Tb61 Tb 0.57129 0.48105 0.65108 0.00000
Tb62 Tb 0.68729 0.61340 0.53190 0.00000
C63 C 0.67396 0.65067 0.37696 0.00000
C64 C 0.61401 0.50310 0.49196 0.00000
O65 O 0.51966 0.49996 0.70004 0.00000
O66 O 0.54618 0.52811 0.59655 0.00000
C67 C 0.52165 0.52311 0.64787 0.00000
O68 O 0.61913 0.55111 0.68254 0.00000
O69 O 0.57532 0.46775 0.76861 0.00000
O70 O 0.67384 0.61594 0.64863 0.00000
O71 O 0.59458 0.41682 0.78254 0.00000
O72 O 0.73893 0.59449 0.48294 0.00000
O73 O 0.71241 0.56634 0.58644 0.00000
O74 O 0.63945 0.54335 0.50044 0.00000
O75 O 0.68327 0.62670 0.41438 0.00000
C76 C 0.58463 0.44379 0.80603 0.00000
O77 O 0.58475 0.47852 0.53435 0.00000
O78 O 0.66401 0.67764 0.40045 0.00000
C79 C 0.64458 0.59135 0.69103 0.00000
C80 C 0.26305 0.42866 0.53512 0.00000
Tb81 Tb 0.42870 0.51895 0.65108 0.00000
Tb82 Tb 0.31270 0.38661 0.53190 0.00000
C83 C 0.32603 0.34934 0.37696 0.00000
C84 C 0.38598 0.49690 0.49196 0.00000
O85 O 0.48033 0.50005 0.70004 0.00000
O86 O 0.45381 0.47190 0.59655 0.00000
C87 C 0.47834 0.47690 0.64787 0.00000
O88 O 0.38086 0.44890 0.68254 0.00000
O89 O 0.42467 0.53226 0.76860 0.00000
O90 O 0.32616 0.38407 0.64863 0.00000
O91 O 0.40541 0.58319 0.78254 0.00000
O92 O 0.26107 0.40551 0.48294 0.00000
O93 O 0.28759 0.43366 0.58643 0.00000
O94 O 0.36054 0.45666 0.50044 0.00000
O95 O 0.31673 0.37330 0.41438 0.00000
C96 C 0.41536 0.55622 0.80603 0.00000
O97 O 0.41524 0.52149 0.53435 0.00000
O98 O 0.33599 0.32237 0.40045 0.00000
C99 C 0.35542 0.40866 0.69103 0.00000
C100 C 0.83458 0.26298 0.86841 0.00000
Tb101 Tb 0.90978 0.42861 0.98437 0.00000
Tb102 Tb 0.92627 0.31269 0.86519 0.00000
C103 C 0.97688 0.32607 0.71025 0.00000
C104 C 0.88915 0.38589 0.82525 0.00000
O105 O 0.98030 0.48029 0.03332 0.00000
O106 O 0.98196 0.45379 0.92983 0.00000
C107 C 0.00147 0.47833 0.98115 0.00000
O108 O 0.93206 0.38082 0.01583 0.00000
O109 O 0.89245 0.42457 0.10189 0.00000
O110 O 0.94226 0.32616 0.98192 0.00000
O111 O 0.82225 0.40525 0.11584 0.00000
O112 O 0.85575 0.26101 0.81624 0.00000
O113 O 0.85409 0.28752 0.91973 0.00000
O114 O 0.90399 0.36048 0.83373 0.00000
O115 O 0.94360 0.31673 0.74767 0.00000
C116 C 0.85918 0.41524 0.13932 0.00000
O117 O 0.89379 0.41515 0.86764 0.00000
O118 O 0.01381 0.33605 0.73373 0.00000
C119 C 0.94691 0.35541 0.02431 0.00000
C120 C 0.42876 0.16568 0.20180 0.00000
Tb121 Tb 0.51904 0.09031 0.31775 0.00000
Tb122 Tb 0.38670 0.07399 0.19858 0.00000
C123 C 0.34942 0.02340 0.04364 0.00000
C124 C 0.49699 0.11098 0.15864 0.00000
O125 O 0.50013 0.01977 0.36671 0.00000
O126 O 0.47197 0.01815 0.26322 0.00000
C127 C 0.47697 0.99861 0.31454 0.00000
O128 O 0.44899 0.06811 0.34922 0.00000
O129 O 0.53235 0.10764 0.43528 0.00000
O130 O 0.38416 0.05800 0.31531 0.00000
O131 O 0.58328 0.17782 0.44921 0.00000
O132 O 0.40561 0.14453 0.14962 0.00000
O133 O 0.43376 0.14615 0.25311 0.00000
O134 O 0.45675 0.09619 0.16712 0.00000
O135 O 0.37339 0.05666 0.08106 0.00000
C136 C 0.55631 0.14090 0.47270 0.00000
O137 O 0.52158 0.10630 0.20102 0.00000
O138 O 0.32245 0.98648 0.06712 0.00000
C139 C 0.40874 0.05331 0.35770 0.00000
C140 C 0.16541 0.73703 0.86841 0.00000
Tb141 Tb 0.09021 0.57139 0.98437 0.00000
Tb142 Tb 0.07372 0.68731 0.86519 0.00000
C143 C 0.02312 0.67394 0.71025 0.00000
C144 C 0.11085 0.61411 0.82525 0.00000
O145 O 0.01969 0.51971 0.03332 0.00000
O146 O 0.01803 0.54622 0.92983 0.00000
C147 C 0.99852 0.52168 0.98115 0.00000
O148 O 0.06793 0.61918 0.01583 0.00000
O149 O 0.10754 0.57543 0.10189 0.00000
O150 O 0.05773 0.67385 0.98192 0.00000
O151 O 0.17774 0.59475 0.11584 0.00000
O152 O 0.14424 0.73899 0.81624 0.00000
O153 O 0.14590 0.71249 0.91973 0.00000
O154 O 0.09600 0.63952 0.83373 0.00000
O155 O 0.05639 0.68327 0.74767 0.00000
C156 C 0.14082 0.58477 0.13932 0.00000
O157 O 0.10620 0.58486 0.86764 0.00000
O158 O 0.98619 0.66395 0.73373 0.00000
C159 C 0.05309 0.64459 0.02431 0.00000
C160 C 0.83429 0.57119 0.46486 0.00000
Tb161 Tb 0.90969 0.48094 0.34890 0.00000
Tb162 Tb 0.92599 0.61327 0.46807 0.00000
C163 C 0.97658 0.65055 0.62301 0.00000
C164 C 0.88901 0.50298 0.50802 0.00000
O165 O 0.98023 0.49986 0.29994 0.00000
O166 O 0.98185 0.52801 0.40343 0.00000
C167 C 0.00139 0.52301 0.35211 0.00000
O168 O 0.93188 0.55098 0.31744 0.00000
O169 O 0.89236 0.46763 0.23138 0.00000
O170 O 0.94198 0.61581 0.35134 0.00000
O171 O 0.82218 0.41668 0.21744 0.00000
O172 O 0.85544 0.59434 0.51703 0.00000
O173 O 0.85382 0.56619 0.41354 0.00000
O174 O 0.90380 0.54322 0.49953 0.00000
O175 O 0.94331 0.62658 0.58560 0.00000
C176 C 0.85910 0.44366 0.19395 0.00000
O177 O 0.89370 0.47839 0.46563 0.00000
O178 O 0.01349 0.67752 0.59953 0.00000
C179 C 0.94667 0.59123 0.30895 0.00000
C180 C 0.26297 0.83456 0.79824 0.00000
Tb181 Tb 0.42861 0.90978 0.68228 0.00000
Tb182 Tb 0.31268 0.92625 0.80146 0.00000
C183 C 0.32605 0.97686 0.95640 0.00000
C184 C 0.38589 0.88914 0.84140 0.00000
O185 O 0.48029 0.98030 0.63333 0.00000
O186 O 0.45378 0.98195 0.73682 0.00000
C187 C 0.47832 0.00147 0.68551 0.00000
O188 O 0.38082 0.93205 0.65082 0.00000
O189 O 0.42458 0.89245 0.56476 0.00000
O190 O 0.32615 0.94224 0.68473 0.00000
O191 O 0.40526 0.82225 0.55082 0.00000
O192 O 0.26100 0.85573 0.85041 0.00000
O193 O 0.28751 0.85408 0.74692 0.00000
O194 O 0.36048 0.90398 0.83292 0.00000
O195 O 0.31672 0.94358 0.91899 0.00000
C196 C 0.41524 0.85917 0.52733 0.00000
O197 O 0.41515 0.89379 0.79901 0.00000
O198 O 0.33604 0.01378 0.93292 0.00000
C199 C 0.35540 0.94689 0.64234 0.00000
C200 C 0.42856 0.26302 0.13157 0.00000
Tb201 Tb 0.51890 0.42866 0.01561 0.00000
Tb202 Tb 0.38653 0.31269 0.13479 0.00000
C203 C 0.34928 0.32604 0.28973 0.00000
C204 C 0.49684 0.38594 0.17473 0.00000
O205 O 0.50002 0.48031 0.96666 0.00000
O206 O 0.47186 0.45379 0.07014 0.00000
C207 C 0.47687 0.47833 0.01883 0.00000
O208 O 0.44884 0.38084 0.98415 0.00000
O209 O 0.53220 0.42463 0.89809 0.00000
O210 O 0.38400 0.32615 0.01806 0.00000
O211 O 0.58311 0.40535 0.88415 0.00000
O212 O 0.40542 0.26104 0.18375 0.00000
O213 O 0.43357 0.28755 0.08026 0.00000
O214 O 0.45659 0.36051 0.16625 0.00000
O215 O 0.37323 0.31672 0.25232 0.00000
C216 C 0.55616 0.41531 0.86067 0.00000
O217 O 0.52143 0.41520 0.13234 0.00000
O218 O 0.32232 0.33600 0.26625 0.00000
C219 C 0.40859 0.35540 0.97567 0.00000
C220 C 0.16571 0.42881 0.46486 0.00000
Tb221 Tb 0.09031 0.51906 0.34890 0.00000
Tb222 Tb 0.07401 0.38673 0.46807 0.00000
C223 C 0.02342 0.34945 0.62301 0.00000
C224 C 0.11099 0.49702 0.50802 0.00000
O225 O 0.01977 0.50014 0.29994 0.00000
O226 O 0.01815 0.47199 0.40343 0.00000
C227 C 0.99861 0.47699 0.35211 0.00000
O228 O 0.06812 0.44902 0.31744 0.00000
O229 O 0.10764 0.53237 0.23138 0.00000
O230 O 0.05802 0.38419 0.35135 0.00000
O231 O 0.17782 0.58331 0.21744 0.00000
O232 O 0.14456 0.40566 0.51703 0.00000
O233 O 0.14618 0.43380 0.41354 0.00000
O234 O 0.09620 0.45678 0.49954 0.00000
O235 O 0.05668 0.37342 0.58560 0.00000
C236 C 0.14090 0.55634 0.19395 0.00000
O237 O 0.10630 0.52160 0.46563 0.00000
O238 O 0.98650 0.32248 0.59953 0.00000
C239 C 0.05333 0.40877 0.30895 0.00000
C240 C 0.77885 0.18873 0.81474 0.00000
C241 C 0.81801 0.23309 0.82889 0.00000
H242 H 0.78400 0.17460 0.77597 0.00000
H243 H 0.77321 0.17010 0.85438 0.00000
H244 H 0.82223 0.25013 0.79009 0.00000
H245 H 0.84293 0.23171 0.84038 0.00000
C246 C 0.58665 0.78081 0.13492 0.00000
C247 C 0.57503 0.81502 0.15527 0.00000
H248 H 0.59434 0.78298 0.08627 0.00000
H249 H 0.61175 0.78518 0.16060 0.00000
H250 H 0.55070 0.80963 0.13009 0.00000
H251 H 0.59806 0.84343 0.14870 0.00000
C252 C 0.76932 0.55942 0.53956 0.00000
C253 C 0.79575 0.54924 0.48877 0.00000
H254 H 0.74737 0.53348 0.56237 0.00000
H255 H 0.78781 0.57820 0.57589 0.00000
H256 H 0.77708 0.53149 0.45449 0.00000
H257 H 0.81057 0.53680 0.51050 0.00000
C258 C 0.21955 0.41773 0.53829 0.00000
C259 C 0.18824 0.43186 0.51205 0.00000
H260 H 0.22126 0.41864 0.58851 0.00000
H261 H 0.20940 0.38806 0.52523 0.00000
H262 H 0.19916 0.46047 0.52505 0.00000
H263 H 0.15978 0.41395 0.52806 0.00000
C264 C 0.43408 0.24157 0.17778 0.00000
C265 C 0.41905 0.19772 0.21160 0.00000
H266 H 0.42181 0.25711 0.20079 0.00000
H267 H 0.46508 0.25945 0.18200 0.00000
H268 H 0.38930 0.18140 0.20610 0.00000
H269 H 0.42735 0.20001 0.25849 0.00000
C270 C 0.21025 0.76716 0.86961 0.00000
C271 C 0.24509 0.79417 0.81655 0.00000
H272 H 0.21284 0.74277 0.88536 0.00000
H273 H 0.21355 0.78433 0.91031 0.00000
H274 H 0.24072 0.77680 0.77814 0.00000
H275 H 0.27329 0.80592 0.83451 0.00000
C276 C 0.56510 0.13418 0.04304 0.00000
C277 C 0.58827 0.12011 0.99190 0.00000
H278 H 0.57358 0.13310 0.09044 0.00000
H279 H 0.57305 0.16390 0.03443 0.00000
H280 H 0.57964 0.09145 0.00135 0.00000
H281 H 0.61856 0.13794 0.99330 0.00000
C282 C 0.42928 0.56493 0.37505 0.00000
C283 C 0.46710 0.58933 0.32533 0.00000
H284 H 0.43749 0.57474 0.42243 0.00000
H285 H 0.40614 0.57041 0.36342 0.00000
H286 H 0.48847 0.58306 0.33770 0.00000
H287 H 0.47740 0.61930 0.32479 0.00000
C288 C 0.44226 0.88581 0.95457 0.00000
C289 C 0.46823 0.89755 0.02176 0.00000
H290 H 0.45350 0.91018 0.92299 0.00000
H291 H 0.44453 0.86324 0.93068 0.00000
H292 H 0.46504 0.91898 0.04344 0.00000
H293 H 0.49750 0.90602 0.01454 0.00000
C294 C 0.56681 0.46373 0.35545 0.00000
C295 C 0.55280 0.44254 0.28431 0.00000
H296 H 0.58168 0.49499 0.35199 0.00000
H297 H 0.54172 0.45552 0.38421 0.00000
H298 H 0.57763 0.45085 0.25842 0.00000
H299 H 0.53348 0.44927 0.26184 0.00000
C300 C 0.86035 0.41174 0.68396 0.00000
C301 C 0.85706 0.44626 0.64225 0.00000
H302 H 0.83383 0.39344 0.70911 0.00000
H303 H 0.86462 0.39289 0.65308 0.00000
H304 H 0.85331 0.46387 0.67351 0.00000
H305 H 0.83493 0.43448 0.60869 0.00000
C306 C 0.11881 0.58461 0.67321 0.00000
C307 C 0.13397 0.56490 0.61745 0.00000
H308 H 0.13227 0.61568 0.66775 0.00000
H309 H 0.08803 0.57327 0.66912 0.00000
H310 H 0.16348 0.57623 0.62329 0.00000
H311 H 0.12705 0.56948 0.57225 0.00000
C312 C 0.65390 0.02193 0.99718 0.00000
C313 C 0.63121 0.97304 0.98758 0.00000
H314 H 0.64051 0.03464 0.96933 0.00000
H315 H 0.65142 0.02876 0.04485 0.00000
H316 H 0.63453 0.96773 0.94153 0.00000
H317 H 0.60193 0.95905 0.00100 0.00000
C318 C 0.68646 0.66312 0.32542 0.00000
C319 C 0.65551 0.67618 0.29384 0.00000
H320 H 0.70542 0.66198 0.29055 0.00000
H321 H 0.70500 0.68449 0.35896 0.00000
H322 H 0.63808 0.65485 0.26242 0.00000
H323 H 0.66995 0.70380 0.27325 0.00000
C324 C 0.34641 0.36808 0.33911 0.00000
C325 C 0.36771 0.34055 0.34830 0.00000
H326 H 0.35877 0.39269 0.37028 0.00000
H327 H 0.35147 0.37980 0.29268 0.00000
H328 H 0.36192 0.32963 0.39311 0.00000
H329 H 0.39758 0.35588 0.33876 0.00000
C330 C 0.02494 0.34446 0.68706 0.00000
C331 C 0.97952 0.33439 0.70700 0.00000
H332 H 0.04533 0.35898 0.72441 0.00000
H333 H 0.02516 0.31791 0.67848 0.00000
H334 H 0.98049 0.36053 0.71430 0.00000
H335 H 0.96852 0.31595 0.74575 0.00000
C336 C 0.31412 0.97664 0.00999 0.00000
C337 C 0.34595 0.02076 0.04028 0.00000
H338 H 0.29672 0.95643 0.04598 0.00000
H339 H 0.29412 0.97920 0.97931 0.00000
H340 H 0.36476 0.01711 0.06892 0.00000
H341 H 0.33215 0.03368 0.06373 0.00000
C342 C 0.97884 0.66591 0.65493 0.00000
C343 C 0.02208 0.68637 0.69284 0.00000
H344 H 0.96080 0.67715 0.67177 0.00000
H345 H 0.98347 0.67299 0.60616 0.00000
H346 H 0.01641 0.67865 0.73922 0.00000
H347 H 0.03836 0.71657 0.68688 0.00000
C348 C 0.48331 0.01168 0.68578 0.00000
C349 C 0.47831 0.96876 0.66160 0.00000
H350 H 0.45855 0.01435 0.67260 0.00000
H351 H 0.48475 0.01329 0.73582 0.00000
H352 H 0.47737 0.96850 0.61351 0.00000
H353 H 0.45398 0.94467 0.68102 0.00000
C354 C 0.48116 0.50036 0.03871 0.00000
C355 C 0.51208 0.48282 0.03105 0.00000
H356 H 0.45783 0.48294 0.07057 0.00000
H357 H 0.49625 0.52913 0.05817 0.00000
H358 H 0.49661 0.45540 0.01182 0.00000
H359 H 0.52537 0.48272 0.07321 0.00000
C360 C 0.47097 0.98881 0.32103 0.00000
C361 C 0.51075 0.03026 0.34527 0.00000
H362 H 0.44490 0.98503 0.34309 0.00000
H363 H 0.46692 0.99026 0.27176 0.00000
H364 H 0.51379 0.02759 0.39251 0.00000
H365 H 0.50930 0.05526 0.33464 0.00000
C366 C 0.49969 0.51889 0.69092 0.00000
C367 C 0.48802 0.47165 0.68601 0.00000
H368 H 0.48260 0.52295 0.72602 0.00000
H369 H 0.52953 0.53654 0.70485 0.00000
H370 H 0.45937 0.45580 0.67206 0.00000
H371 H 0.49306 0.46112 0.72770 0.00000
C372 C 0.02462 0.51263 0.01866 0.00000
C373 C 0.98684 0.51926 0.00010 0.00000
H374 H 0.05021 0.53976 0.03039 0.00000
H375 H 0.01760 0.49450 0.05930 0.00000
H376 H 0.99459 0.53646 0.96069 0.00000
H377 H 0.97871 0.53108 0.03685 0.00000
C378 C 0.97672 0.48631 0.36924 0.00000
C379 C 0.02544 0.51686 0.37317 0.00000
H380 H 0.96580 0.46929 0.41123 0.00000
H381 H 0.96204 0.50275 0.36509 0.00000
H382 H 0.03843 0.50001 0.37658 0.00000
H383 H 0.03353 0.53688 0.40983 0.00000
C384 C 0.63385 0.00130 0.54021 0.00000
C385 C 0.60692 0.96862 0.48434 0.00000
H386 H 0.63169 0.98720 0.58421 0.00000
H387 H 0.66407 0.01592 0.52751 0.00000
H388 H 0.57820 0.95551 0.49799 0.00000
H389 H 0.61585 0.94829 0.47572 0.00000
C390 C 0.62290 0.64433 0.85325 0.00000
C391 C 0.64609 0.63050 0.80175 0.00000
H392 H 0.64294 0.67122 0.87604 0.00000
H393 H 0.60231 0.64969 0.82915 0.00000
H394 H 0.66527 0.62535 0.82670 0.00000
H395 H 0.65997 0.65085 0.76604 0.00000
C396 C 0.38777 0.40481 0.80895 0.00000
C397 C 0.38763 0.39033 0.88340 0.00000
H398 H 0.38615 0.43110 0.80747 0.00000
H399 H 0.41457 0.41147 0.78644 0.00000
H400 H 0.36139 0.38393 0.90312 0.00000
H401 H 0.41132 0.41095 0.90946 0.00000
C402 C 0.00146 0.39423 0.20688 0.00000
C403 C 0.98821 0.39281 0.13131 0.00000
H404 H 0.01027 0.42215 0.22764 0.00000
H405 H 0.97710 0.37326 0.23369 0.00000
H406 H 0.01239 0.41305 0.10716 0.00000
H407 H 0.96458 0.39740 0.12603 0.00000
C408 C 0.36478 0.97182 0.51303 0.00000
C409 C 0.36706 0.00112 0.45369 0.00000
H410 H 0.33600 0.94697 0.51757 0.00000
H411 H 0.38384 0.96051 0.50376 0.00000
H412 H 0.34868 0.01160 0.46459 0.00000
H413 H 0.36045 0.98709 0.41033 0.00000
C414 C 0.02717 0.63933 0.15264 0.00000
C415 C 0.99470 0.63378 0.20877 0.00000
H416 H 0.04699 0.66962 0.14302 0.00000
H417 H 0.04471 0.62735 0.16821 0.00000
H418 H 0.97829 0.64530 0.19186 0.00000
H419 H 0.00798 0.64629 0.25138 0.00000
C420 C 0.58124 0.13518 0.46125 0.00000
C421 C 0.53813 0.12262 0.49585 0.00000
H422 H 0.57908 0.11207 0.43206 0.00000
H423 H 0.58969 0.15975 0.43112 0.00000
H424 H 0.53124 0.09924 0.52465 0.00000
H425 H 0.51600 0.11665 0.46362 0.00000
C426 C 0.40350 0.56347 0.85360 0.00000
C427 C 0.44985 0.60114 0.85111 0.00000
H428 H 0.38940 0.56324 0.89670 0.00000
H429 H 0.38668 0.56637 0.81693 0.00000
H430 H 0.46504 0.59710 0.88657 0.00000
H431 H 0.45149 0.62826 0.85395 0.00000
C432 C 0.42150 0.87277 0.46900 0.00000
C433 C 0.46068 0.87997 0.51115 0.00000
H434 H 0.42257 0.89988 0.45883 0.00000
H435 H 0.42126 0.85998 0.42472 0.00000
H436 H 0.45967 0.89193 0.55334 0.00000
H437 H 0.48701 0.89716 0.48775 0.00000
C438 C 0.58757 0.43954 0.87192 0.00000
C439 C 0.54081 0.40790 0.85209 0.00000
H440 H 0.58954 0.45084 0.91833 0.00000
H441 H 0.60412 0.42487 0.87241 0.00000
H442 H 0.52604 0.42313 0.85165 0.00000
H443 H 0.52766 0.38366 0.88162 0.00000
C444 C 0.84155 0.40487 0.19184 0.00000
C445 C 0.85218 0.45178 0.18664 0.00000
H446 H 0.83212 0.39349 0.23819 0.00000
H447 H 0.81783 0.38696 0.16122 0.00000
H448 H 0.87521 0.46798 0.21622 0.00000
H449 H 0.82823 0.45524 0.19635 0.00000
C450 C 0.12416 0.54167 0.17066 0.00000
C451 C 0.13444 0.58295 0.20939 0.00000
H452 H 0.11393 0.51726 0.20200 0.00000
H453 H 0.10110 0.53441 0.13781 0.00000
H454 H 0.15684 0.58907 0.23996 0.00000
H455 H 0.11015 0.58097 0.23209 0.00000
loop_
_geom_bond_atom_site_label_1
_geom_bond_atom_site_label_2
_geom_bond_distance
_geom_bond_site_symmetry_2
_ccdc_geom_bond_type
C0 O12 1.270 . A
C0 O13 1.262 . A
Tb1 O5 2.426 . S
Tb1 O6 2.476 . S
Tb1 O8 2.276 . S
Tb1 O9 2.313 . S
Tb1 O17 2.292 . S
Tb2 O10 2.292 . S
Tb2 O12 2.426 . S
Tb2 O13 2.476 . S
Tb2 O14 2.276 . S
Tb2 O15 2.313 . S
C3 O15 1.272 . S
C3 O18 1.254 1_545 D
C4 O14 1.259 . A
C4 O17 1.259 . A
O5 C7 1.270 1_545 A
O6 C7 1.262 1_545 A
O8 C19 1.259 . A
O9 C16 1.272 . S
O10 C19 1.259 . A
O11 C16 1.254 . D
C20 O32 1.270 . A
C20 O33 1.262 . A
Tb21 O25 2.426 1_554 S
Tb21 O26 2.476 . S
Tb21 O28 2.276 1_554 S
Tb21 O29 2.313 1_554 S
Tb21 O37 2.292 . S
Tb22 O30 2.292 . S
Tb22 O32 2.426 . S
Tb22 O33 2.476 . S
Tb22 O34 2.276 . S
Tb22 O35 2.313 . S
C23 O35 1.272 . S
C23 O38 1.254 . D
C24 O34 1.259 . A
C24 O37 1.259 . A
O25 C27 1.270 1_556 A
O26 C27 1.262 . A
O28 C39 1.259 . A
O29 C36 1.272 . S
O30 C39 1.259 1_554 A
O31 C36 1.254 . D
C40 O52 1.270 . A
C40 O53 1.262 . A
Tb41 O45 2.426 . S
Tb41 O46 2.476 . S
Tb41 O48 2.276 . S
Tb41 O49 2.313 . S
Tb41 O57 2.292 . S
Tb42 O50 2.292 . S
Tb42 O52 2.426 . S
Tb42 O53 2.476 . S
Tb42 O54 2.276 . S
Tb42 O55 2.313 . S
C43 O55 1.272 . S
C43 O58 1.254 1_565 D
C44 O54 1.259 . A
C44 O57 1.259 . A
O45 C47 1.270 1_565 A
O46 C47 1.262 1_565 A
O48 C59 1.259 . A
O49 C56 1.272 . S
O50 C59 1.259 . A
O51 C56 1.254 . D
C60 O72 1.270 . A
C60 O73 1.262 . A
Tb61 O65 2.426 . S
Tb61 O66 2.476 . S
Tb61 O68 2.276 . S
Tb61 O69 2.313 . S
Tb61 O77 2.292 . S
Tb62 O70 2.292 . S
Tb62 O72 2.426 . S
Tb62 O73 2.476 . S
Tb62 O74 2.276 . S
Tb62 O75 2.313 . S
C63 O75 1.272 . S
C63 O78 1.254 . D
C64 O74 1.259 . A
C64 O77 1.259 . A
O65 C67 1.270 . A
O66 C67 1.262 . A
O68 C79 1.259 . A
O69 C76 1.272 . S
O70 C79 1.259 . A
O71 C76 1.254 . D
C80 O92 1.270 . A
C80 O93 1.262 . A
Tb81 O85 2.426 . S
Tb81 O86 2.476 . S
Tb81 O88 2.276 . S
Tb81 O89 2.313 . S
Tb81 O97 2.292 . S
Tb82 O90 2.292 . S
Tb82 O92 2.426 . S
Tb82 O93 2.476 . S
Tb82 O94 2.276 . S
Tb82 O95 2.313 . S
C83 O95 1.272 . S
C83 O98 1.254 . D
C84 O94 1.259 . A
C84 O97 1.259 . A
O85 C87 1.270 . A
O86 C87 1.262 . A
O88 C99 1.259 . A
O89 C96 1.272 . S
O90 C99 1.259 . A
O91 C96 1.254 . D
C100 O112 1.270 . A
C100 O113 1.262 . A
Tb101 O105 2.426 1_556 S
Tb101 O106 2.476 . S
Tb101 O108 2.276 1_556 S
Tb101 O109 2.313 1_556 S
Tb101 O117 2.292 . S
Tb102 O110 2.292 . S
Tb102 O112 2.426 . S
Tb102 O113 2.476 . S
Tb102 O114 2.276 . S
Tb102 O115 2.313 . S
C103 O115 1.272 . S
C103 O118 1.254 1_655 D
C104 O114 1.259 . A
C104 O117 1.259 . A
O105 C107 1.270 1_654 A
O106 C107 1.262 1_655 A
O108 C119 1.259 . A
O109 C116 1.272 . S
O110 C119 1.259 1_556 A
O111 C116 1.254 . D
C120 O132 1.270 . A
C120 O133 1.262 . A
Tb121 O125 2.426 . S
Tb121 O126 2.476 . S
Tb121 O128 2.276 . S
Tb121 O129 2.313 . S
Tb121 O137 2.292 . S
Tb122 O130 2.292 . S
Tb122 O132 2.426 . S
Tb122 O133 2.476 . S
Tb122 O134 2.276 . S
Tb122 O135 2.313 . S
C123 O135 1.272 . S
C123 O138 1.254 1_545 D
C124 O134 1.259 . A
C124 O137 1.259 . A
O125 C127 1.270 1_545 A
O126 C127 1.262 1_545 A
O128 C139 1.259 . A
O129 C136 1.272 . S
O130 C139 1.259 . A
O131 C136 1.254 . D
C140 O152 1.270 . A
C140 O153 1.262 . A
Tb141 O145 2.426 1_556 S
Tb141 O146 2.476 . S
Tb141 O148 2.276 1_556 S
Tb141 O149 2.313 1_556 S
Tb141 O157 2.292 . S
Tb142 O150 2.292 . S
Tb142 O152 2.426 . S
Tb142 O153 2.476 . S
Tb142 O154 2.276 . S
Tb142 O155 2.313 . S
C143 O155 1.272 . S
C143 O158 1.254 1_455 D
C144 O154 1.259 . A
C144 O157 1.259 . A
O145 C147 1.270 1_454 A
O146 C147 1.262 1_455 A
O148 C159 1.259 . A
O149 C156 1.272 . S
O150 C159 1.259 1_556 A
O151 C156 1.254 . D
C160 O172 1.270 . A
C160 O173 1.262 . A
Tb161 O165 2.426 . S
Tb161 O166 2.476 . S
Tb161 O168 2.276 . S
Tb161 O169 2.313 . S
Tb161 O177 2.292 . S
Tb162 O170 2.292 . S
Tb162 O172 2.426 . S
Tb162 O173 2.476 . S
Tb162 O174 2.276 . S
Tb162 O175 2.313 . S
C163 O175 1.272 . S
C163 O178 1.254 1_655 D
C164 O174 1.259 . A
C164 O177 1.259 . A
O165 C167 1.270 1_655 A
O166 C167 1.262 1_655 A
O168 C179 1.259 . A
O169 C176 1.272 . S
O170 C179 1.259 . A
O171 C176 1.254 . D
C180 O192 1.270 . A
C180 O193 1.262 . A
Tb181 O185 2.426 . S
Tb181 O186 2.476 . S
Tb181 O188 2.276 . S
Tb181 O189 2.313 . S
Tb181 O197 2.292 . S
Tb182 O190 2.292 . S
Tb182 O192 2.426 . S
Tb182 O193 2.476 . S
Tb182 O194 2.276 . S
Tb182 O195 2.313 . S
C183 O195 1.272 . S
C183 O198 1.254 1_565 D
C184 O194 1.259 . A
C184 O197 1.259 . A
O185 C187 1.270 1_565 A
O186 C187 1.262 1_565 A
O188 C199 1.259 . A
O189 C196 1.272 . S
O190 C199 1.259 . A
O191 C196 1.254 . D
C200 O212 1.270 . A
C200 O213 1.262 . A
Tb201 O205 2.426 1_554 S
Tb201 O206 2.476 . S
Tb201 O208 2.276 1_554 S
Tb201 O209 2.313 1_554 S
Tb201 O217 2.292 . S
Tb202 O210 2.292 . S
Tb202 O212 2.426 . S
Tb202 O213 2.476 . S
Tb202 O214 2.276 . S
Tb202 O215 2.313 . S
C203 O215 1.272 . S
C203 O218 1.254 . D
C204 O214 1.259 . A
C204 O217 1.259 . A
O205 C207 1.270 1_556 A
O206 C207 1.262 . A
O208 C219 1.259 . A
O209 C216 1.272 . S
O210 C219 1.259 1_554 A
O211 C216 1.254 . D
C220 O232 1.270 . A
C220 O233 1.262 . A
Tb221 O225 2.426 . S
Tb221 O226 2.476 . S
Tb221 O228 2.276 . S
Tb221 O229 2.313 . S
Tb221 O237 2.292 . S
Tb222 O230 2.292 . S
Tb222 O232 2.426 . S
Tb222 O233 2.476 . S
Tb222 O234 2.276 . S
Tb222 O235 2.313 . S
C223 O235 1.272 . S
C223 O238 1.254 1_455 D
C224 O234 1.259 . A
C224 O237 1.259 . A
O225 C227 1.270 1_455 A
O226 C227 1.262 1_455 A
O228 C239 1.259 . A
O229 C236 1.272 . S
O230 C239 1.259 . A
O231 C236 1.254 . D
C240 C241 1.511 . S
C240 H242 0.961 . S
C240 H243 0.958 . S
C241 H244 0.919 . S
C241 H245 0.934 . S
C246 C247 1.511 . S
C246 H248 0.961 . S
C246 H249 0.958 . S
C247 H250 0.919 . S
C247 H251 0.934 . S
C252 C253 1.511 . S
C252 H254 0.961 . S
C252 H255 0.958 . S
C253 H256 0.919 . S
C253 H257 0.934 . S
C258 C259 1.511 . S
C258 H260 0.961 . S
C258 H261 0.958 . S
C259 H262 0.919 . S
C259 H263 0.934 . S
C264 C265 1.511 . S
C264 H266 0.961 . S
C264 H267 0.958 . S
C265 H268 0.919 . S
C265 H269 0.934 . S
C270 C271 1.511 . S
C270 H272 0.961 . S
C270 H273 0.958 . S
C271 H274 0.919 . S
C271 H275 0.934 . S
C276 C277 1.511 1_554 S
C276 H278 0.961 . S
C276 H279 0.958 . S
C277 H280 0.919 1_556 S
C277 H281 0.934 . S
C282 C283 1.511 . S
C282 H284 0.961 . S
C282 H285 0.958 . S
C283 H286 0.919 . S
C283 H287 0.934 . S
C288 C289 1.511 1_556 S
C288 H290 0.961 . S
C288 H291 0.958 . S
C289 H292 0.919 . S
C289 H293 0.934 . S
C294 C295 1.511 . S
C294 H296 0.961 . S
C294 H297 0.958 . S
C295 H298 0.919 . S
C295 H299 0.934 . S
C300 C301 1.511 . S
C300 H302 0.961 . S
C300 H303 0.958 . S
C301 H304 0.919 . S
C301 H305 0.934 . S
C306 C307 1.511 . S
C306 H308 0.961 . S
C306 H309 0.958 . S
C307 H310 0.919 . S
C307 H311 0.934 . S
C312 C313 1.511 1_545 S
C312 H314 0.961 . S
C312 H315 0.958 1_556 S
C313 H316 0.919 . S
C313 H317 0.934 1_556 S
C318 C319 1.511 . S
C318 H320 0.961 . S
C318 H321 0.958 . S
C319 H322 0.919 . S
C319 H323 0.934 . S
C324 C325 1.511 . S
C324 H326 0.961 . S
C324 H327 0.958 . S
C325 H328 0.919 . S
C325 H329 0.934 . S
C330 C331 1.511 1_455 S
C330 H332 0.961 . S
C330 H333 0.958 . S
C331 H334 0.919 . S
C331 H335 0.934 . S
C336 C337 1.511 1_565 S
C336 H338 0.961 . S
C336 H339 0.958 1_554 S
C337 H340 0.919 . S
C337 H341 0.934 . S
C342 C343 1.511 1_655 S
C342 H344 0.961 . S
C342 H345 0.958 . S
C343 H346 0.919 . S
C343 H347 0.934 . S
C348 C349 1.511 1_545 S
C348 H350 0.961 . S
C348 H351 0.958 . S
C349 H352 0.919 . S
C349 H353 0.934 . S
C354 C355 1.511 . S
C354 H356 0.961 . S
C354 H357 0.958 . S
C355 H358 0.919 . S
C355 H359 0.934 . S
C360 C361 1.511 1_565 S
C360 H362 0.961 . S
C360 H363 0.958 . S
C361 H364 0.919 . S
C361 H365 0.934 . S
C366 C367 1.511 . S
C366 H368 0.961 . S
C366 H369 0.958 . S
C367 H370 0.919 . S
C367 H371 0.934 . S
C372 C373 1.511 1_455 S
C372 H374 0.961 . S
C372 H375 0.958 . S
C373 H376 0.920 1_554 S
C373 H377 0.933 . S
C378 C379 1.511 1_655 S
C378 H380 0.961 . S
C378 H381 0.958 . S
C379 H382 0.919 . S
C379 H383 0.934 . S
C384 C385 1.511 1_545 S
C384 H386 0.961 1_545 S
C384 H387 0.958 . S
C385 H388 0.919 . S
C385 H389 0.934 . S
C390 C391 1.511 . S
C390 H392 0.961 . S
C390 H393 0.958 . S
C391 H394 0.919 . S
C391 H395 0.934 . S
C396 C397 1.511 . S
C396 H398 0.961 . S
C396 H399 0.958 . S
C397 H400 0.919 . S
C397 H401 0.934 . S
C402 C403 1.511 1_455 S
C402 H404 0.961 . S
C402 H405 0.958 1_455 S
C403 H406 0.919 1_655 S
C403 H407 0.934 . S
C408 C409 1.511 1_565 S
C408 H410 0.961 . S
C408 H411 0.958 . S
C409 H412 0.919 . S
C409 H413 0.934 1_545 S
C414 C415 1.511 1_455 S
C414 H416 0.961 . S
C414 H417 0.958 . S
C415 H418 0.919 . S
C415 H419 0.934 1_655 S
C420 C421 1.511 . S
C420 H422 0.961 . S
C420 H423 0.958 . S
C421 H424 0.919 . S
C421 H425 0.934 . S
C426 C427 1.511 . S
C426 H428 0.961 . S
C426 H429 0.958 . S
C427 H430 0.919 . S
C427 H431 0.934 . S
C432 C433 1.511 . S
C432 H434 0.961 . S
C432 H435 0.958 . S
C433 H436 0.919 . S
C433 H437 0.934 . S
C438 C439 1.511 . S
C438 H440 0.961 . S
C438 H441 0.958 . S
C439 H442 0.919 . S
C439 H443 0.934 . S
C444 C445 1.511 . S
C444 H446 0.961 . S
C444 H447 0.958 . S
C445 H448 0.919 . S
C445 H449 0.934 . S
C450 C451 1.511 . S
C450 H452 0.961 . S
C450 H453 0.958 . S
C451 H454 0.919 . S
C451 H455 0.934 . S
C240 C0 1.323 . S
C241 C100 1.189 . S
C246 C20 1.366 . S
C247 C40 1.169 . S
C252 C60 1.408 . S
C253 C160 1.270 . S
C258 C80 1.389 . S
C259 C220 1.172 . S
C264 C200 1.242 . S
C265 C120 1.352 . S
C270 C140 1.401 . S
C271 C180 1.289 . S
C276 C124 3.064 . S
C277 C4 3.084 . S
C282 C84 3.074 . S
C283 C24 3.092 . S
C288 C184 2.984 . S
C289 C44 2.970 . S
C294 C64 3.035 . S
C295 C204 2.890 . S
C300 C104 3.178 . S
C301 C164 3.101 . S
C306 C144 3.147 . S
C307 C224 2.975 . S
C312 C3 1.040 . S
C313 C43 1.244 1_556 S
C318 C63 1.079 . S
C319 C23 0.166 . S
C324 C83 1.002 . S
C325 C203 1.268 . S
C330 C223 1.241 . S
C331 C103 0.268 . S
C336 C183 1.106 1_554 S
C337 C123 0.128 . S
C342 C163 0.794 . S
C343 C143 0.567 . S
C348 C187 0.313 . S
C349 C7 1.435 . S
C354 C207 0.811 . S
C355 C27 1.249 . S
C360 C127 0.327 . S
C361 C47 1.422 . S
C366 C67 1.089 . S
C367 C87 0.864 . S
C372 C107 1.290 1_554 S
C373 C147 0.524 1_554 S
C378 C227 1.035 . S
C379 C167 1.058 . S
C384 C19 2.573 . S
C385 C59 2.517 . S
C390 C39 2.593 . S
C391 C79 2.515 . S
C396 C99 2.562 . S
C397 C219 2.471 . S
C402 C239 2.549 . S
C403 C119 2.477 . S
C408 C199 2.589 . S
C409 C139 2.496 . S
C414 C159 2.592 . S
C415 C179 2.503 . S
C420 C16 1.275 . S
C421 C136 0.782 . S
C426 C96 1.084 . S
C427 C36 0.542 . S
C432 C196 1.190 . S
C433 C56 1.002 . S
C438 C76 1.278 . S
C439 C216 0.498 . S
C444 C116 1.141 . S
C445 C176 0.482 . S
C450 C236 0.715 . S
C451 C156 1.354 . S
