# Generated by pormake.
# Topology wld, (5)-cn, num edge types: 1
# Building blocks:
#     Node 0, Type 0, BuildingBlock: N179, # of connection points: 6
#     Node 1, Type 0, BuildingBlock: N179, # of connection points: 6
#     Node 2, Type 0, BuildingBlock: N179, # of connection points: 6
#     Node 3, Type 0, BuildingBlock: N179, # of connection points: 6
#     Node 4, Type 0, BuildingBlock: N179, # of connection points: 6
#     Node 5, Type 0, BuildingBlock: N179, # of connection points: 6
#     Node 6, Type 0, BuildingBlock: N179, # of connection points: 6
#     Node 7, Type 0, BuildingBlock: N179, # of connection points: 6
#     Node 8, Type 0, BuildingBlock: N179, # of connection points: 6
#     Node 9, Type 0, BuildingBlock: N179, # of connection points: 6
#     Node 10, Type 0, BuildingBlock: N179, # of connection points: 6
#     Node 11, Type 0, BuildingBlock: N179, # of connection points: 6
#     Edge 12, Type (0, 0), BuildingBlock: E128, # of connection points: 2
#     Edge 13, Type (0, 0), BuildingBlock: E128, # of connection points: 2
#     Edge 14, Type (0, 0), BuildingBlock: E128, # of connection points: 2
#     Edge 15, Type (0, 0), BuildingBlock: E128, # of connection points: 2
#     Edge 16, Type (0, 0), BuildingBlock: E128, # of connection points: 2
#     Edge 17, Type (0, 0), BuildingBlock: E128, # of connection points: 2
#     Edge 18, Type (0, 0), BuildingBlock: E128, # of connection points: 2
#     Edge 19, Type (0, 0), BuildingBlock: E128, # of connection points: 2
#     Edge 20, Type (0, 0), BuildingBlock: E128, # of connection points: 2
#     Edge 21, Type (0, 0), BuildingBlock: E128, # of connection points: 2
#     Edge 22, Type (0, 0), BuildingBlock: E128, # of connection points: 2
#     Edge 23, Type (0, 0), BuildingBlock: E128, # of connection points: 2
#     Edge 24, Type (0, 0), BuildingBlock: E128, # of connection points: 2
#     Edge 25, Type (0, 0), BuildingBlock: E128, # of connection points: 2
#     Edge 26, Type (0, 0), BuildingBlock: E128, # of connection points: 2
#     Edge 27, Type (0, 0), BuildingBlock: E128, # of connection points: 2
#     Edge 28, Type (0, 0), BuildingBlock: E128, # of connection points: 2
#     Edge 29, Type (0, 0), BuildingBlock: E128, # of connection points: 2
#     Edge 30, Type (0, 0), BuildingBlock: E128, # of connection points: 2
#     Edge 31, Type (0, 0), BuildingBlock: E128, # of connection points: 2
#     Edge 32, Type (0, 0), BuildingBlock: E128, # of connection points: 2
#     Edge 33, Type (0, 0), BuildingBlock: E128, # of connection points: 2
#     Edge 34, Type (0, 0), BuildingBlock: E128, # of connection points: 2
#     Edge 35, Type (0, 0), BuildingBlock: E128, # of connection points: 2
#     Edge 36, Type (0, 0), BuildingBlock: E128, # of connection points: 2
#     Edge 37, Type (0, 0), BuildingBlock: E128, # of connection points: 2
#     Edge 38, Type (0, 0), BuildingBlock: E128, # of connection points: 2
#     Edge 39, Type (0, 0), BuildingBlock: E128, # of connection points: 2
#     Edge 40, Type (0, 0), BuildingBlock: E128, # of connection points: 2
#     Edge 41, Type (0, 0), BuildingBlock: E128, # of connection points: 2
# Relax obj value: 0.057
# Max RMSD: 0.211
# Mean RMSD: 0.203
data_wld+N179+E128
_symmetry_space_group_name_H-M    P1
_symmetry_Int_Tables_number       1
_symmetry_cell_setting            triclinic
loop_
_symmetry_equiv_pos_as_xyz
'x, y, z'
_cell_length_a     26.144
_cell_length_b     26.097
_cell_length_c     38.351
_cell_angle_alpha  89.380
_cell_angle_beta   90.536
_cell_angle_gamma  119.440
loop_
_atom_site_label
_atom_site_type_symbol
_atom_site_fract_x
_atom_site_fract_y
_atom_site_fract_z
_atom_type_partial_charge
C0 C 0.27289 0.17069 0.67226 0.00000
C1 C 0.47110 0.29957 0.60115 0.00000
C2 C 0.27345 0.03077 0.68888 0.00000
C3 C 0.50091 0.17317 0.61447 0.00000
O4 O 0.26563 0.06401 0.58511 0.00000
O5 O 0.31167 0.23375 0.58798 0.00000
O6 O 0.34964 0.08580 0.55811 0.00000
C7 C 0.31389 0.21497 0.55854 0.00000
O8 O 0.34493 0.19199 0.55113 0.00000
C9 C 0.29489 0.06802 0.55859 0.00000
O10 O 0.37439 0.16167 0.62203 0.00000
O11 O 0.43559 0.29754 0.62331 0.00000
O12 O 0.31687 0.22141 0.67061 0.00000
O13 O 0.46446 0.25956 0.58046 0.00000
O14 O 0.26099 0.13352 0.64830 0.00000
O15 O 0.32121 0.07683 0.68946 0.00000
O16 O 0.24481 0.01394 0.66067 0.00000
O17 O 0.47555 0.15661 0.58592 0.00000
O18 O 0.47857 0.17597 0.64361 0.00000
Co19 Co 0.35769 0.22677 0.62652 0.00000
Co20 Co 0.40739 0.17248 0.57141 0.00000
Co21 Co 0.30549 0.08403 0.63271 0.00000
C22 C 0.83136 0.10213 0.67251 0.00000
C23 C 0.70023 0.17309 0.60159 0.00000
C24 C 0.97029 0.24089 0.68816 0.00000
C25 C 0.82533 0.32763 0.61393 0.00000
O26 O 0.93632 0.20196 0.58464 0.00000
O27 O 0.76742 0.07975 0.58852 0.00000
O28 O 0.91333 0.26446 0.55749 0.00000
C29 C 0.78570 0.10103 0.55894 0.00000
O30 O 0.80801 0.15480 0.55127 0.00000
C31 C 0.93168 0.22756 0.55804 0.00000
O32 O 0.83845 0.21294 0.62185 0.00000
O33 O 0.70294 0.13937 0.62386 0.00000
O34 O 0.78048 0.09575 0.67106 0.00000
O35 O 0.73977 0.20642 0.58064 0.00000
O36 O 0.86812 0.12747 0.64833 0.00000
O37 O 0.92400 0.24284 0.68889 0.00000
O38 O 0.98705 0.22951 0.65993 0.00000
O39 O 0.84177 0.31925 0.58535 0.00000
O40 O 0.82316 0.30213 0.64316 0.00000
Co41 Co 0.77416 0.13181 0.62686 0.00000
Co42 Co 0.82677 0.23594 0.57119 0.00000
Co43 Co 0.91645 0.22102 0.63223 0.00000
C44 C 0.12558 0.33195 0.31583 0.00000
C45 C 0.10039 0.32772 0.45407 0.00000
C46 C 0.25906 0.31816 0.30508 0.00000
C47 C 0.23104 0.30341 0.45988 0.00000
O48 O 0.29134 0.46811 0.35594 0.00000
O49 O 0.12837 0.42910 0.38026 0.00000
O50 O 0.31245 0.46424 0.41234 0.00000
C51 C 0.16799 0.47156 0.39643 0.00000
O52 O 0.20609 0.46872 0.41541 0.00000
C53 C 0.31376 0.49154 0.38446 0.00000
O54 O 0.19926 0.35509 0.39258 0.00000
O55 O 0.07692 0.31344 0.42474 0.00000
O56 O 0.08778 0.30915 0.33949 0.00000
O57 O 0.15340 0.36353 0.46090 0.00000
O58 O 0.17621 0.37479 0.32178 0.00000
O59 O 0.22574 0.29067 0.32939 0.00000
O60 O 0.28643 0.37376 0.30524 0.00000
O61 O 0.25935 0.35787 0.46185 0.00000
O62 O 0.20198 0.27238 0.43355 0.00000
Co63 Co 0.12401 0.35201 0.38299 0.00000
Co64 Co 0.23182 0.41069 0.43567 0.00000
Co65 Co 0.25123 0.37907 0.35131 0.00000
C66 C 0.66457 0.80036 0.32015 0.00000
C67 C 0.66770 0.77689 0.45858 0.00000
C68 C 0.67783 0.94759 0.30837 0.00000
C69 C 0.69131 0.93135 0.46335 0.00000
O70 O 0.52789 0.83122 0.35931 0.00000
O71 O 0.56724 0.70629 0.38478 0.00000
O72 O 0.53117 0.85513 0.41554 0.00000
C73 C 0.52464 0.70378 0.40074 0.00000
O74 O 0.52714 0.74433 0.41943 0.00000
C75 C 0.50421 0.83004 0.38772 0.00000
O76 O 0.64055 0.84986 0.39640 0.00000
O77 O 0.68228 0.76801 0.42939 0.00000
O78 O 0.68723 0.78461 0.34405 0.00000
O79 O 0.63175 0.79448 0.46508 0.00000
O80 O 0.62163 0.80867 0.32581 0.00000
O81 O 0.70514 0.94092 0.33288 0.00000
O82 O 0.62233 0.92017 0.30844 0.00000
O83 O 0.63693 0.90597 0.46523 0.00000
O84 O 0.72257 0.93334 0.43718 0.00000
Co85 Co 0.64402 0.77784 0.38737 0.00000
Co86 Co 0.58465 0.82687 0.43937 0.00000
Co87 Co 0.61679 0.87892 0.35479 0.00000
C88 C 0.86403 0.18554 0.17992 0.00000
C89 C 0.89388 0.20847 0.04190 0.00000
C90 C 0.72959 0.04059 0.19020 0.00000
C91 C 0.76275 0.05603 0.03579 0.00000
O92 O 0.70005 0.16036 0.13711 0.00000
O93 O 0.86413 0.28147 0.11413 0.00000
O94 O 0.68071 0.13678 0.08068 0.00000
C95 C 0.82523 0.28553 0.09718 0.00000
O96 O 0.78760 0.24565 0.07806 0.00000
C97 C 0.67868 0.16240 0.10816 0.00000
O98 O 0.79281 0.13788 0.10250 0.00000
O99 O 0.91635 0.21664 0.07154 0.00000
O100 O 0.90258 0.20015 0.15676 0.00000
O101 O 0.84118 0.19255 0.03432 0.00000
O102 O 0.81374 0.17899 0.17313 0.00000
O103 O 0.76363 0.04611 0.16644 0.00000
O104 O 0.70256 0.06956 0.18913 0.00000
O105 O 0.73482 0.08296 0.03292 0.00000
O106 O 0.79080 0.05292 0.06268 0.00000
Co107 Co 0.86799 0.20841 0.11251 0.00000
Co108 Co 0.76200 0.16253 0.05849 0.00000
Co109 Co 0.73947 0.11025 0.14317 0.00000
C110 C 0.84021 0.72132 0.16223 0.00000
C111 C 0.71073 0.52565 0.08912 0.00000
C112 C 0.97870 0.71830 0.17852 0.00000
C113 C 0.83545 0.49344 0.10180 0.00000
O114 O 0.94730 0.73015 0.07492 0.00000
O115 O 0.77834 0.68593 0.07765 0.00000
O116 O 0.92492 0.64667 0.04699 0.00000
C117 C 0.79734 0.68444 0.04813 0.00000
O118 O 0.81980 0.65309 0.04032 0.00000
C119 C 0.94329 0.70161 0.04806 0.00000
O120 O 0.84847 0.62058 0.11079 0.00000
O121 O 0.71292 0.56067 0.11168 0.00000
O122 O 0.78935 0.67772 0.16019 0.00000
O123 O 0.75078 0.53250 0.06841 0.00000
O124 O 0.87755 0.73363 0.13832 0.00000
O125 O 0.93237 0.67076 0.17865 0.00000
O126 O 0.99616 0.74791 0.15060 0.00000
O127 O 0.85261 0.51975 0.07350 0.00000
O128 O 0.83258 0.51502 0.13119 0.00000
Co129 Co 0.78410 0.63814 0.11563 0.00000
Co130 Co 0.83801 0.58917 0.05982 0.00000
Co131 Co 0.92624 0.68862 0.12209 0.00000
C132 C 0.28309 0.11296 0.16447 0.00000
C133 C 0.47807 0.17571 0.09116 0.00000
C134 C 0.28498 0.25435 0.17791 0.00000
C135 C 0.50907 0.33212 0.10085 0.00000
O136 O 0.27262 0.20946 0.07513 0.00000
O137 O 0.31810 0.08468 0.08064 0.00000
O138 O 0.35554 0.26907 0.04646 0.00000
C139 C 0.31916 0.10456 0.05072 0.00000
O140 O 0.35005 0.15778 0.04200 0.00000
C141 C 0.30079 0.23317 0.04795 0.00000
O142 O 0.38269 0.21974 0.11142 0.00000
O143 O 0.44344 0.14372 0.11418 0.00000
O144 O 0.32685 0.10525 0.16282 0.00000
O145 O 0.47073 0.20851 0.06974 0.00000
O146 O 0.27032 0.13762 0.13999 0.00000
O147 O 0.33264 0.25509 0.17829 0.00000
O148 O 0.25517 0.24203 0.15007 0.00000
O149 O 0.48253 0.32275 0.07259 0.00000
O150 O 0.48790 0.30849 0.13061 0.00000
Co151 Co 0.36585 0.13829 0.11781 0.00000
Co152 Co 0.41356 0.23940 0.06021 0.00000
Co153 Co 0.31447 0.23031 0.12213 0.00000
C154 C 0.20138 0.87778 0.31695 0.00000
C155 C 0.22258 0.90054 0.45538 0.00000
C156 C 0.05576 0.74505 0.30495 0.00000
C157 C 0.06937 0.77045 0.45987 0.00000
O158 O 0.17301 0.71050 0.35674 0.00000
O159 O 0.29536 0.87292 0.38216 0.00000
O160 O 0.14852 0.68853 0.41293 0.00000
C161 C 0.29845 0.83273 0.39833 0.00000
O162 O 0.25806 0.79444 0.41696 0.00000
C163 C 0.17423 0.68742 0.38526 0.00000
O164 O 0.15186 0.80278 0.39326 0.00000
O165 O 0.23148 0.92459 0.42614 0.00000
O166 O 0.21617 0.91528 0.34076 0.00000
O167 O 0.20580 0.84723 0.46205 0.00000
O168 O 0.19393 0.82678 0.32281 0.00000
O169 O 0.06148 0.77812 0.32932 0.00000
O170 O 0.08395 0.71722 0.30532 0.00000
O171 O 0.09549 0.74165 0.46204 0.00000
O172 O 0.06716 0.80018 0.43355 0.00000
Co173 Co 0.22310 0.87798 0.38429 0.00000
Co174 Co 0.17507 0.76903 0.43653 0.00000
Co175 Co 0.12418 0.75146 0.35174 0.00000
C176 C 0.72510 0.89380 0.83091 0.00000
C177 C 0.52924 0.82329 0.90481 0.00000
C178 C 0.72740 0.75510 0.81497 0.00000
C179 C 0.50247 0.66876 0.89260 0.00000
O180 O 0.73866 0.79571 0.91843 0.00000
O181 O 0.68879 0.91736 0.91555 0.00000
O182 O 0.65636 0.73342 0.94677 0.00000
C183 C 0.68833 0.89661 0.94512 0.00000
O184 O 0.65859 0.84296 0.95316 0.00000
C185 C 0.71081 0.77048 0.94544 0.00000
O186 O 0.62729 0.78364 0.88293 0.00000
O187 O 0.56339 0.85672 0.88205 0.00000
O188 O 0.68047 0.89999 0.83308 0.00000
O189 O 0.53768 0.79041 0.92558 0.00000
O190 O 0.73880 0.86898 0.85484 0.00000
O191 O 0.67907 0.75293 0.81499 0.00000
O192 O 0.75729 0.76706 0.84277 0.00000
O193 O 0.52913 0.67772 0.92079 0.00000
O194 O 0.52321 0.69381 0.86308 0.00000
Co195 Co 0.64193 0.86456 0.87784 0.00000
Co196 Co 0.59660 0.76138 0.93406 0.00000
Co197 Co 0.69680 0.77572 0.87144 0.00000
C198 C 0.10428 0.82939 0.83525 0.00000
C199 C 0.17460 0.70018 0.90897 0.00000
C200 C 0.24276 0.96850 0.81911 0.00000
C201 C 0.32887 0.82559 0.89654 0.00000
O202 O 0.20224 0.93672 0.92264 0.00000
O203 O 0.08076 0.76728 0.91990 0.00000
O204 O 0.26440 0.91461 0.95086 0.00000
C205 C 0.10148 0.78631 0.94944 0.00000
O206 O 0.15504 0.80900 0.95740 0.00000
C207 C 0.22743 0.93279 0.94960 0.00000
O208 O 0.21424 0.83808 0.88708 0.00000
O209 O 0.14124 0.70224 0.88627 0.00000
O210 O 0.09808 0.77853 0.83740 0.00000
O211 O 0.20744 0.74032 0.92970 0.00000
O212 O 0.12908 0.86679 0.85915 0.00000
O213 O 0.24491 0.92221 0.81912 0.00000
O214 O 0.23084 0.98585 0.84694 0.00000
O215 O 0.31995 0.84265 0.92475 0.00000
O216 O 0.30386 0.82266 0.86706 0.00000
Co217 Co 0.13345 0.77336 0.88210 0.00000
Co218 Co 0.23645 0.82763 0.93816 0.00000
Co219 Co 0.22217 0.91586 0.87560 0.00000
C220 C 0.17407 0.27222 0.83301 0.00000
C221 C 0.30214 0.46833 0.90602 0.00000
C222 C 0.03474 0.27360 0.81680 0.00000
C223 C 0.17633 0.49891 0.89342 0.00000
O224 O 0.06663 0.26229 0.92039 0.00000
O225 O 0.23602 0.30820 0.91755 0.00000
O226 O 0.08821 0.34557 0.94829 0.00000
C227 C 0.21695 0.30949 0.94708 0.00000
O228 O 0.19401 0.34042 0.95490 0.00000
C229 C 0.07037 0.29074 0.94724 0.00000
O230 O 0.16469 0.37234 0.88444 0.00000
O231 O 0.30031 0.43347 0.88346 0.00000
O232 O 0.22471 0.31616 0.83502 0.00000
O233 O 0.26198 0.46108 0.92676 0.00000
O234 O 0.13670 0.25957 0.85694 0.00000
O235 O 0.08078 0.32141 0.81664 0.00000
O236 O 0.01756 0.24399 0.84474 0.00000
O237 O 0.15942 0.47258 0.92172 0.00000
O238 O 0.17942 0.47746 0.86402 0.00000
Co239 Co 0.22962 0.35562 0.87956 0.00000
Co240 Co 0.17493 0.40374 0.93540 0.00000
Co241 Co 0.08725 0.30377 0.87320 0.00000
C242 C 0.89443 0.72394 0.67189 0.00000
C243 C 0.82490 0.52563 0.60057 0.00000
C244 C 0.75531 0.72476 0.68826 0.00000
C245 C 0.67023 0.49717 0.61360 0.00000
O246 O 0.79379 0.73304 0.58456 0.00000
O247 O 0.91687 0.68530 0.58763 0.00000
O248 O 0.73180 0.64932 0.55741 0.00000
C249 C 0.89540 0.68354 0.55815 0.00000
O250 O 0.84173 0.65292 0.55063 0.00000
C251 C 0.76827 0.70406 0.55798 0.00000
O252 O 0.78405 0.62331 0.62141 0.00000
O253 O 0.85847 0.56085 0.62280 0.00000
O254 O 0.90127 0.67958 0.67023 0.00000
O255 O 0.79129 0.53284 0.57981 0.00000
O256 O 0.86878 0.73640 0.64789 0.00000
O257 O 0.75384 0.67666 0.68881 0.00000
O258 O 0.76631 0.75371 0.66007 0.00000
O259 O 0.67824 0.52286 0.58507 0.00000
O260 O 0.69572 0.51917 0.64278 0.00000
Co261 Co 0.86529 0.63921 0.62606 0.00000
Co262 Co 0.76106 0.59072 0.57074 0.00000
Co263 Co 0.77530 0.69271 0.63210 0.00000
C264 C 0.62818 0.42883 0.61380 0.00000
C265 C 0.56818 0.40357 0.60724 0.00000
C266 C 0.53483 0.34270 0.60329 0.00000
H267 H 0.68571 0.31414 0.61797 0.00000
H268 H 0.62777 0.26062 0.61181 0.00000
C269 C 0.62167 0.33323 0.61199 0.00000
C270 C 0.56152 0.30807 0.60601 0.00000
C271 C 0.65482 0.39395 0.61583 0.00000
H272 H 0.53883 0.26747 0.60379 0.00000
H273 H 0.69508 0.41142 0.61977 0.00000
H274 H 0.55052 0.42696 0.60551 0.00000
N275 N 0.64851 0.29813 0.61421 0.00000
C276 C 0.56904 0.19937 0.61448 0.00000
C277 C 0.59562 0.16545 0.60814 0.00000
C278 C 0.65637 0.19337 0.60368 0.00000
H279 H 0.67990 0.37067 0.61651 0.00000
H280 H 0.73417 0.36701 0.61017 0.00000
C281 C 0.66307 0.28845 0.61141 0.00000
C282 C 0.68958 0.25429 0.60567 0.00000
C283 C 0.60247 0.26048 0.61577 0.00000
H284 H 0.73013 0.27248 0.60310 0.00000
H285 H 0.58412 0.28272 0.61956 0.00000
H286 H 0.57319 0.12467 0.60691 0.00000
N287 N 0.69673 0.34998 0.61289 0.00000
C288 C 0.17608 0.53781 0.38366 0.00000
C289 C 0.18280 0.58841 0.39967 0.00000
C290 C 0.18529 0.63394 0.37902 0.00000
H291 H 0.16805 0.54212 0.28067 0.00000
H292 H 0.17316 0.60146 0.27775 0.00000
C293 C 0.17521 0.57831 0.32682 0.00000
C294 C 0.18093 0.62839 0.34296 0.00000
C295 C 0.17287 0.53304 0.34747 0.00000
H296 H 0.18189 0.65864 0.32943 0.00000
H297 H 0.16916 0.49935 0.33705 0.00000
H298 H 0.18558 0.59183 0.42382 0.00000
N299 N 0.17167 0.57332 0.29038 0.00000
C300 C 0.45575 0.65048 0.38779 0.00000
C301 C 0.41333 0.59569 0.40024 0.00000
C302 C 0.36298 0.56224 0.38027 0.00000
H303 H 0.41573 0.69467 0.29671 0.00000
H304 H 0.35848 0.63974 0.29183 0.00000
C305 C 0.39753 0.63881 0.33608 0.00000
C306 C 0.35571 0.58364 0.34835 0.00000
C307 C 0.44763 0.67212 0.35609 0.00000
H308 H 0.32236 0.56073 0.33502 0.00000
H309 H 0.47592 0.70912 0.34826 0.00000
H310 H 0.41848 0.58153 0.42159 0.00000
N311 N 0.38956 0.66054 0.30408 0.00000
C312 C 0.80868 0.42539 0.10777 0.00000
C313 C 0.83319 0.39200 0.09593 0.00000
C314 C 0.80620 0.33225 0.10445 0.00000
H315 H 0.66601 0.33543 0.16488 0.00000
H316 H 0.66405 0.27752 0.16256 0.00000
C317 C 0.73136 0.34019 0.13682 0.00000
C318 C 0.75544 0.30675 0.12444 0.00000
C319 C 0.75844 0.39978 0.12835 0.00000
H320 H 0.73733 0.26675 0.12963 0.00000
H321 H 0.74292 0.42271 0.13649 0.00000
H322 H 0.86711 0.40928 0.08250 0.00000
N323 N 0.68058 0.31438 0.15741 0.00000
C324 C 0.66628 0.46290 0.09210 0.00000
C325 C 0.60519 0.43174 0.09338 0.00000
C326 C 0.57690 0.37188 0.10172 0.00000
H327 H 0.74122 0.36587 0.11230 0.00000
H328 H 0.68588 0.30953 0.11862 0.00000
C329 C 0.67070 0.37487 0.10686 0.00000
C330 C 0.60966 0.34412 0.10870 0.00000
C331 C 0.69877 0.43452 0.09847 0.00000
H332 H 0.59047 0.30438 0.11466 0.00000
H333 H 0.73953 0.45563 0.09708 0.00000
H334 H 0.58349 0.45058 0.08875 0.00000
N335 N 0.70350 0.34642 0.11345 0.00000
C336 C 0.63835 0.19400 0.10043 0.00000
C337 C 0.57723 0.16324 0.09929 0.00000
C338 C 0.54708 0.19337 0.09068 0.00000
H339 H 0.70787 0.36387 0.07904 0.00000
H340 H 0.65135 0.36346 0.07264 0.00000
C341 C 0.63912 0.28442 0.08498 0.00000
C342 C 0.57805 0.25329 0.08329 0.00000
C343 C 0.66905 0.25428 0.09365 0.00000
H344 H 0.55762 0.27287 0.07715 0.00000
H345 H 0.70986 0.27450 0.09494 0.00000
H346 H 0.55673 0.12310 0.10419 0.00000
N347 N 0.67011 0.34508 0.07798 0.00000
C348 C 0.43563 0.80388 0.39629 0.00000
C349 C 0.40446 0.83309 0.38836 0.00000
C350 C 0.34734 0.81036 0.40082 0.00000
H351 H 0.34645 0.65929 0.45290 0.00000
H352 H 0.29189 0.66355 0.45604 0.00000
C353 C 0.35291 0.72938 0.42845 0.00000
C354 C 0.32228 0.75927 0.42096 0.00000
C355 C 0.40982 0.75208 0.41592 0.00000
H356 H 0.28446 0.74485 0.42952 0.00000
H357 H 0.43080 0.73253 0.42066 0.00000
H358 H 0.42150 0.86733 0.37492 0.00000
N359 N 0.32709 0.67736 0.44837 0.00000
C360 C 0.46627 0.81018 0.91250 0.00000
C361 C 0.43036 0.82624 0.89382 0.00000
C362 C 0.37264 0.80533 0.90475 0.00000
H363 H 0.38782 0.70464 0.99280 0.00000
H364 H 0.32992 0.70206 0.98824 0.00000
C365 C 0.38715 0.75208 0.95238 0.00000
C366 C 0.35170 0.76907 0.93398 0.00000
C367 C 0.44463 0.77290 0.94138 0.00000
H368 H 0.31341 0.75594 0.94133 0.00000
H369 H 0.46881 0.76185 0.95338 0.00000
H370 H 0.44464 0.85063 0.87432 0.00000
N371 N 0.36550 0.71479 0.98158 0.00000
C372 C 0.17495 0.64084 0.91628 0.00000
C373 C 0.18587 0.60706 0.89281 0.00000
C374 C 0.18214 0.55439 0.90424 0.00000
H375 H 0.13751 0.57346 0.01162 0.00000
H376 H 0.14136 0.51953 0.00413 0.00000
C377 C 0.15758 0.57029 0.96237 0.00000
C378 C 0.16755 0.53616 0.93866 0.00000
C379 C 0.16146 0.62285 0.95090 0.00000
H380 H 0.16444 0.50063 0.94595 0.00000
H381 H 0.15501 0.64618 0.96646 0.00000
H382 H 0.19551 0.61942 0.86978 0.00000
N383 N 0.14368 0.55207 0.99720 0.00000
C384 C 0.43719 0.62581 0.90019 0.00000
C385 C 0.40344 0.56592 0.89339 0.00000
C386 C 0.35050 0.53293 0.91100 0.00000
H387 H 0.36887 0.68336 0.97110 0.00000
H388 H 0.31480 0.62594 0.97758 0.00000
C389 C 0.36604 0.61959 0.94226 0.00000
C390 C 0.33196 0.55993 0.93494 0.00000
C391 C 0.41888 0.65233 0.92470 0.00000
H392 H 0.29626 0.53776 0.94624 0.00000
H393 H 0.44217 0.69222 0.92937 0.00000
H394 H 0.41601 0.54810 0.87729 0.00000
N395 N 0.34751 0.64643 0.96681 0.00000
C396 C 0.81685 0.46529 0.59285 0.00000
C397 C 0.82256 0.42671 0.61583 0.00000
C398 C 0.81042 0.37147 0.60398 0.00000
H399 H 0.76397 0.40094 0.49823 0.00000
H400 H 0.76052 0.34297 0.50497 0.00000
C401 C 0.78628 0.39363 0.54671 0.00000
C402 C 0.79301 0.35559 0.56961 0.00000
C403 C 0.79830 0.44864 0.55863 0.00000
H404 H 0.78572 0.31897 0.56182 0.00000
H405 H 0.79390 0.47450 0.54364 0.00000
H406 H 0.83433 0.43762 0.63879 0.00000
N407 N 0.76790 0.37704 0.51218 0.00000
C408 C 0.29196 0.24185 0.53197 0.00000
C409 C 0.25107 0.23440 0.50619 0.00000
C410 C 0.25155 0.28391 0.49170 0.00000
H411 H 0.39846 0.40809 0.55693 0.00000
H412 H 0.37386 0.43429 0.53174 0.00000
C413 C 0.33290 0.34741 0.52915 0.00000
C414 C 0.29258 0.33980 0.50297 0.00000
C415 C 0.33222 0.29793 0.54360 0.00000
H416 H 0.29306 0.37259 0.49286 0.00000
H417 H 0.35882 0.30232 0.56116 0.00000
H418 H 0.22377 0.19689 0.49870 0.00000
N419 N 0.37367 0.40389 0.54077 0.00000
C420 C 0.72025 0.98206 0.48665 0.00000
C421 C 0.75479 0.00825 0.51598 0.00000
C422 C 0.76662 0.06456 0.52537 0.00000
H423 H 0.66722 0.08187 0.43749 0.00000
H424 H 0.69544 0.13282 0.46166 0.00000
C425 C 0.71020 0.06813 0.47590 0.00000
C426 C 0.74391 0.09374 0.50558 0.00000
C427 C 0.69859 0.01203 0.46656 0.00000
H428 H 0.75141 0.13095 0.51228 0.00000
H429 H 0.67621 0.99439 0.44676 0.00000
H430 H 0.76978 0.98846 0.52916 0.00000
N431 N 0.68809 0.09815 0.45575 0.00000
C432 C 0.05625 0.28284 0.48692 0.00000
C433 C 0.00818 0.27900 0.50458 0.00000
C434 C 0.97616 0.23116 0.52678 0.00000
H435 H 0.08505 0.14980 0.50590 0.00000
H436 H 0.03578 0.11799 0.53089 0.00000
C437 C 0.03987 0.19132 0.51305 0.00000
C438 C 0.99246 0.18818 0.53111 0.00000
C439 C 0.07163 0.23902 0.49087 0.00000
H440 H 0.97132 0.15683 0.54629 0.00000
H441 H 0.10336 0.24167 0.47858 0.00000
H442 H 0.99754 0.30796 0.50163 0.00000
N443 N 0.05560 0.14737 0.51715 0.00000
C444 C 0.71160 0.76432 0.48176 0.00000
C445 C 0.71764 0.74354 0.51426 0.00000
C446 C 0.76446 0.73301 0.52005 0.00000
H447 H 0.83364 0.78513 0.41396 0.00000
H448 H 0.86682 0.76631 0.43777 0.00000
C449 C 0.79798 0.76320 0.46085 0.00000
C450 C 0.80442 0.74339 0.49357 0.00000
C451 C 0.75118 0.77353 0.45514 0.00000
H452 H 0.83591 0.73695 0.49779 0.00000
H453 H 0.74624 0.78668 0.43339 0.00000
H454 H 0.69083 0.73679 0.53191 0.00000
N455 N 0.83798 0.77279 0.43407 0.00000
C456 C 0.03709 0.25923 0.98440 0.00000
C457 C 0.97950 0.24742 0.98889 0.00000
C458 C 0.95099 0.22236 0.02022 0.00000
H459 H 0.10160 0.21371 0.06523 0.00000
H460 H 0.04847 0.19138 0.08761 0.00000
C461 C 0.03732 0.22046 0.04189 0.00000
C462 C 0.98010 0.20965 0.04650 0.00000
C463 C 0.06559 0.24532 0.01060 0.00000
H464 H 0.96101 0.19364 0.06745 0.00000
H465 H 0.10379 0.25271 0.00712 0.00000
H466 H 0.96027 0.25613 0.97124 0.00000
N467 N 0.06619 0.20675 0.06832 0.00000
C468 C 0.77567 0.70566 0.01316 0.00000
C469 C 0.76988 0.75333 0.00160 0.00000
C470 C 0.73383 0.74633 0.97292 0.00000
H471 H 0.68540 0.56148 0.95737 0.00000
H472 H 0.65894 0.58643 0.93261 0.00000
C473 C 0.71060 0.64479 0.96742 0.00000
C474 C 0.70415 0.69227 0.95632 0.00000
C475 C 0.74667 0.65194 0.99598 0.00000
H476 H 0.67964 0.68780 0.93750 0.00000
H477 H 0.75150 0.62064 0.00367 0.00000
H478 H 0.78977 0.78938 0.01285 0.00000
N479 N 0.68117 0.59057 0.95026 0.00000
C480 C 0.24231 0.98377 0.97392 0.00000
C481 C 0.25639 0.00513 0.00779 0.00000
C482 C 0.28620 0.06581 0.01309 0.00000
H483 H 0.29598 0.10832 0.90143 0.00000
H484 H 0.32270 0.15924 0.92569 0.00000
C485 C 0.28824 0.08297 0.95082 0.00000
C486 C 0.30135 0.10411 0.98476 0.00000
C487 C 0.25863 0.02244 0.94562 0.00000
H488 H 0.32056 0.14448 0.98857 0.00000
H489 H 0.24966 0.00766 0.92308 0.00000
H490 H 0.24604 0.97928 0.02665 0.00000
N491 N 0.30438 0.12187 0.92230 0.00000
C492 C 0.25116 0.94718 0.48868 0.00000
C493 C 0.24174 0.98994 0.50401 0.00000
C494 C 0.28171 0.02721 0.52885 0.00000
H495 H 0.39314 0.94513 0.52341 0.00000
H496 H 0.41248 0.99512 0.54806 0.00000
C497 C 0.33929 0.97813 0.52312 0.00000
C498 C 0.33025 0.02147 0.53795 0.00000
C499 C 0.29929 0.94096 0.49842 0.00000
H500 H 0.35705 0.04698 0.55420 0.00000
H501 H 0.30469 0.91171 0.48833 0.00000
H502 H 0.20924 0.99366 0.49778 0.00000
N503 N 0.38792 0.97201 0.53277 0.00000
C504 C 0.70751 0.92682 0.97751 0.00000
C505 C 0.74838 0.98509 0.98480 0.00000
C506 C 0.74557 0.00892 0.01665 0.00000
H507 H 0.59154 0.84654 0.05256 0.00000
H508 H 0.61542 0.89720 0.07701 0.00000
C509 C 0.66089 0.91658 0.03325 0.00000
C510 C 0.70245 0.97455 0.04067 0.00000
C511 C 0.66373 0.89298 0.00143 0.00000
H512 H 0.70136 0.99056 0.06201 0.00000
H513 H 0.63620 0.85434 0.99608 0.00000
H514 H 0.77722 0.00785 0.96865 0.00000
N515 N 0.61695 0.88235 0.05739 0.00000
C516 C 0.98414 0.74485 0.02279 0.00000
C517 C 0.01364 0.73945 0.99425 0.00000
C518 C 0.06410 0.78895 0.98216 0.00000
H519 H 0.05595 0.90628 0.06039 0.00000
H520 H 0.10589 0.93358 0.03545 0.00000
C521 C 0.05449 0.84858 0.02678 0.00000
C522 C 0.08441 0.84276 0.99861 0.00000
C523 C 0.00412 0.79916 0.03872 0.00000
H524 H 0.11848 0.87535 0.99065 0.00000
H525 H 0.98360 0.80240 0.05748 0.00000
H526 H 0.99990 0.70330 0.98339 0.00000
N527 N 0.07473 0.90319 0.04297 0.00000
C528 C 0.22761 0.26624 0.96977 0.00000
C529 C 0.25195 0.26898 0.00261 0.00000
C530 C 0.27036 0.22855 0.01141 0.00000
H531 H 0.21701 0.13778 0.91086 0.00000
H532 H 0.24405 0.11473 0.93651 0.00000
C533 C 0.23921 0.18278 0.95485 0.00000
C534 C 0.26444 0.18632 0.98749 0.00000
C535 C 0.22078 0.22308 0.94618 0.00000
H536 H 0.27750 0.16002 0.99341 0.00000
H537 H 0.20374 0.22119 0.92449 0.00000
H538 H 0.25592 0.29742 0.01849 0.00000
N539 N 0.23258 0.13952 0.93099 0.00000
C540 C 0.02528 0.77402 0.49055 0.00000
C541 C 0.98061 0.72504 0.50728 0.00000
C542 C 0.94338 0.73263 0.52989 0.00000
H543 H 0.03234 0.92427 0.51506 0.00000
H544 H 0.98120 0.89862 0.53919 0.00000
C545 C 0.99626 0.83774 0.51920 0.00000
C546 C 0.95104 0.78853 0.53541 0.00000
C547 C 0.03339 0.83004 0.49673 0.00000
H548 H 0.92556 0.79308 0.55018 0.00000
H549 H 0.06387 0.86253 0.48576 0.00000
H550 H 0.97561 0.68771 0.50344 0.00000
N551 N 0.00430 0.89416 0.52526 0.00000
C552 C 0.25724 0.00508 0.78645 0.00000
C553 C 0.24609 0.98495 0.75225 0.00000
C554 C 0.26705 0.02571 0.72488 0.00000
H555 H 0.34668 0.17853 0.79422 0.00000
H556 H 0.35333 0.19139 0.75606 0.00000
C557 C 0.30913 0.10592 0.76607 0.00000
C558 C 0.29875 0.08556 0.73192 0.00000
C559 C 0.28805 0.06516 0.79330 0.00000
H560 H 0.31319 0.11238 0.71352 0.00000
H561 H 0.29456 0.07811 0.81626 0.00000
H562 H 0.22495 0.94483 0.74769 0.00000
N563 N 0.34043 0.16642 0.77301 0.00000
C564 C 0.00010 0.23978 0.72084 0.00000
C565 C 0.99502 0.25999 0.75322 0.00000
C566 C 0.02275 0.25154 0.78221 0.00000
H567 H 0.09643 0.16025 0.72288 0.00000
H568 H 0.11057 0.16802 0.76086 0.00000
C569 C 0.06082 0.20221 0.74636 0.00000
C570 C 0.05574 0.22338 0.77856 0.00000
C571 C 0.03302 0.21060 0.71751 0.00000
H572 H 0.07468 0.21859 0.79794 0.00000
H573 H 0.03593 0.19660 0.69583 0.00000
H574 H 0.97297 0.27891 0.75550 0.00000
N575 N 0.09350 0.17308 0.74292 0.00000
C576 C 0.26288 0.30609 0.26846 0.00000
C577 C 0.26690 0.26734 0.24544 0.00000
C578 C 0.27124 0.27972 0.20976 0.00000
H579 H 0.26319 0.44262 0.22235 0.00000
H580 H 0.26898 0.42666 0.18597 0.00000
C581 C 0.26663 0.36863 0.22046 0.00000
C582 C 0.27165 0.33028 0.19759 0.00000
C583 C 0.26218 0.35608 0.25602 0.00000
H584 H 0.27530 0.33857 0.17381 0.00000
H585 H 0.25869 0.38124 0.27161 0.00000
H586 H 0.26672 0.23362 0.25374 0.00000
N587 N 0.26623 0.41916 0.20798 0.00000
C588 C 0.71593 0.98570 0.28135 0.00000
C589 C 0.69839 0.98354 0.24675 0.00000
C590 C 0.73794 0.02379 0.22277 0.00000
H591 H 0.87822 0.11209 0.30046 0.00000
H592 H 0.89216 0.13540 0.26409 0.00000
C593 C 0.81145 0.06822 0.26819 0.00000
C594 C 0.79408 0.06526 0.23351 0.00000
C595 C 0.77187 0.02811 0.29205 0.00000
H596 H 0.82039 0.09143 0.21726 0.00000
H597 H 0.78282 0.02961 0.31533 0.00000
H598 H 0.66080 0.95561 0.23970 0.00000
N599 N 0.86790 0.11072 0.27897 0.00000
C600 C 0.01040 0.72540 0.21079 0.00000
C601 C 0.00823 0.74466 0.24417 0.00000
C602 C 0.03855 0.73493 0.27124 0.00000
H603 H 0.10431 0.64453 0.20449 0.00000
H604 H 0.12230 0.65092 0.24188 0.00000
C605 C 0.07197 0.68623 0.23148 0.00000
C606 C 0.07051 0.70645 0.26469 0.00000
C607 C 0.04159 0.69589 0.20456 0.00000
H608 H 0.09118 0.70080 0.28279 0.00000
H609 H 0.04208 0.68254 0.18224 0.00000
H610 H 0.98687 0.76381 0.24839 0.00000
N611 N 0.10362 0.65677 0.22513 0.00000
C612 C 0.74297 0.72339 0.72192 0.00000
C613 C 0.75341 0.75940 0.75067 0.00000
C614 C 0.73364 0.73362 0.78340 0.00000
H615 H 0.65532 0.55313 0.74402 0.00000
H616 H 0.65001 0.55939 0.78220 0.00000
C617 C 0.69266 0.63654 0.75824 0.00000
C618 C 0.70407 0.67273 0.78701 0.00000
C619 C 0.71231 0.66238 0.72563 0.00000
H620 H 0.69170 0.65593 0.80899 0.00000
H621 H 0.70493 0.63877 0.70615 0.00000
H622 H 0.77332 0.80013 0.74811 0.00000
N623 N 0.66206 0.57509 0.76197 0.00000
loop_
_geom_bond_atom_site_label_1
_geom_bond_atom_site_label_2
_geom_bond_distance
_geom_bond_site_symmetry_2
_ccdc_geom_bond_type
C0 O12 1.258 . A
C0 O14 1.265 . A
C1 O11 1.246 . A
C1 O13 1.260 . A
C2 O15 1.237 . A
C2 O16 1.264 . A
C3 O17 1.241 . S
C3 O18 1.285 . D
O4 C9 1.251 . A
O4 Co21 2.035 . S
O5 C7 1.249 . A
O5 Co19 1.960 . S
O6 C9 1.269 . A
O6 Co20 2.076 . S
C7 O8 1.259 . A
O8 Co20 2.077 . S
O10 Co19 1.960 . S
O10 Co20 2.091 . S
O10 Co21 1.981 . S
O11 Co19 1.969 . S
O12 Co19 1.975 . S
O13 Co20 2.046 . S
O14 Co21 2.211 . S
O15 Co21 2.234 . S
O16 Co21 2.037 . S
O17 Co20 2.088 . S
C22 O34 1.258 . A
C22 O36 1.265 . A
C23 O33 1.246 . A
C23 O35 1.260 . A
C24 O37 1.237 . A
C24 O38 1.264 . A
C25 O39 1.241 . S
C25 O40 1.285 . D
O26 C31 1.251 . A
O26 Co43 2.035 . S
O27 C29 1.249 . A
O27 Co41 1.960 . S
O28 C31 1.269 . A
O28 Co42 2.076 . S
C29 O30 1.259 . A
O30 Co42 2.077 . S
O32 Co41 1.960 . S
O32 Co42 2.091 . S
O32 Co43 1.981 . S
O33 Co41 1.969 . S
O34 Co41 1.975 . S
O35 Co42 2.046 . S
O36 Co43 2.211 . S
O37 Co43 2.234 . S
O38 Co43 2.037 . S
O39 Co42 2.088 . S
C44 O56 1.258 . A
C44 O58 1.265 . A
C45 O55 1.246 . A
C45 O57 1.260 . A
C46 O59 1.237 . A
C46 O60 1.264 . A
C47 O61 1.241 . S
C47 O62 1.285 . D
O48 C53 1.251 . A
O48 Co65 2.035 . S
O49 C51 1.249 . A
O49 Co63 1.960 . S
O50 C53 1.269 . A
O50 Co64 2.076 . S
C51 O52 1.259 . A
O52 Co64 2.077 . S
O54 Co63 1.960 . S
O54 Co64 2.091 . S
O54 Co65 1.981 . S
O55 Co63 1.969 . S
O56 Co63 1.975 . S
O57 Co64 2.046 . S
O58 Co65 2.211 . S
O59 Co65 2.234 . S
O60 Co65 2.037 . S
O61 Co64 2.088 . S
C66 O78 1.258 . A
C66 O80 1.265 . A
C67 O77 1.246 . A
C67 O79 1.260 . A
C68 O81 1.237 . A
C68 O82 1.264 . A
C69 O83 1.241 . S
C69 O84 1.285 . D
O70 C75 1.251 . A
O70 Co87 2.035 . S
O71 C73 1.249 . A
O71 Co85 1.960 . S
O72 C75 1.269 . A
O72 Co86 2.076 . S
C73 O74 1.259 . A
O74 Co86 2.077 . S
O76 Co85 1.960 . S
O76 Co86 2.091 . S
O76 Co87 1.981 . S
O77 Co85 1.969 . S
O78 Co85 1.975 . S
O79 Co86 2.046 . S
O80 Co87 2.211 . S
O81 Co87 2.234 . S
O82 Co87 2.037 . S
O83 Co86 2.088 . S
C88 O100 1.258 . A
C88 O102 1.265 . A
C89 O99 1.246 . A
C89 O101 1.260 . A
C90 O103 1.237 . A
C90 O104 1.264 . A
C91 O105 1.241 . S
C91 O106 1.285 . D
O92 C97 1.251 . A
O92 Co109 2.035 . S
O93 C95 1.249 . A
O93 Co107 1.960 . S
O94 C97 1.269 . A
O94 Co108 2.076 . S
C95 O96 1.259 . A
O96 Co108 2.077 . S
O98 Co107 1.960 . S
O98 Co108 2.091 . S
O98 Co109 1.981 . S
O99 Co107 1.969 . S
O100 Co107 1.975 . S
O101 Co108 2.046 . S
O102 Co109 2.211 . S
O103 Co109 2.234 . S
O104 Co109 2.037 . S
O105 Co108 2.088 . S
C110 O122 1.258 . A
C110 O124 1.265 . A
C111 O121 1.246 . A
C111 O123 1.260 . A
C112 O125 1.237 . A
C112 O126 1.264 . A
C113 O127 1.241 . S
C113 O128 1.285 . D
O114 C119 1.251 . A
O114 Co131 2.035 . S
O115 C117 1.249 . A
O115 Co129 1.960 . S
O116 C119 1.269 . A
O116 Co130 2.076 . S
C117 O118 1.259 . A
O118 Co130 2.077 . S
O120 Co129 1.960 . S
O120 Co130 2.091 . S
O120 Co131 1.981 . S
O121 Co129 1.969 . S
O122 Co129 1.975 . S
O123 Co130 2.046 . S
O124 Co131 2.211 . S
O125 Co131 2.234 . S
O126 Co131 2.037 . S
O127 Co130 2.088 . S
C132 O144 1.258 . A
C132 O146 1.265 . A
C133 O143 1.246 . A
C133 O145 1.260 . A
C134 O147 1.237 . A
C134 O148 1.264 . A
C135 O149 1.241 . S
C135 O150 1.285 . D
O136 C141 1.251 . A
O136 Co153 2.035 . S
O137 C139 1.249 . A
O137 Co151 1.960 . S
O138 C141 1.269 . A
O138 Co152 2.076 . S
C139 O140 1.259 . A
O140 Co152 2.077 . S
O142 Co151 1.960 . S
O142 Co152 2.091 . S
O142 Co153 1.981 . S
O143 Co151 1.969 . S
O144 Co151 1.975 . S
O145 Co152 2.046 . S
O146 Co153 2.211 . S
O147 Co153 2.234 . S
O148 Co153 2.037 . S
O149 Co152 2.088 . S
C154 O166 1.258 . A
C154 O168 1.265 . A
C155 O165 1.246 . A
C155 O167 1.260 . A
C156 O169 1.237 . A
C156 O170 1.264 . A
C157 O171 1.241 . S
C157 O172 1.285 . D
O158 C163 1.251 . A
O158 Co175 2.035 . S
O159 C161 1.249 . A
O159 Co173 1.960 . S
O160 C163 1.269 . A
O160 Co174 2.076 . S
C161 O162 1.259 . A
O162 Co174 2.077 . S
O164 Co173 1.960 . S
O164 Co174 2.091 . S
O164 Co175 1.981 . S
O165 Co173 1.969 . S
O166 Co173 1.975 . S
O167 Co174 2.046 . S
O168 Co175 2.211 . S
O169 Co175 2.234 . S
O170 Co175 2.037 . S
O171 Co174 2.088 . S
C176 O188 1.258 . A
C176 O190 1.265 . A
C177 O187 1.246 . A
C177 O189 1.260 . A
C178 O191 1.237 . A
C178 O192 1.264 . A
C179 O193 1.241 . S
C179 O194 1.285 . D
O180 C185 1.251 . A
O180 Co197 2.035 . S
O181 C183 1.249 . A
O181 Co195 1.960 . S
O182 C185 1.269 . A
O182 Co196 2.076 . S
C183 O184 1.259 . A
O184 Co196 2.077 . S
O186 Co195 1.960 . S
O186 Co196 2.091 . S
O186 Co197 1.981 . S
O187 Co195 1.969 . S
O188 Co195 1.975 . S
O189 Co196 2.046 . S
O190 Co197 2.211 . S
O191 Co197 2.234 . S
O192 Co197 2.037 . S
O193 Co196 2.088 . S
C198 O210 1.258 . A
C198 O212 1.265 . A
C199 O209 1.246 . A
C199 O211 1.260 . A
C200 O213 1.237 . A
C200 O214 1.264 . A
C201 O215 1.241 . S
C201 O216 1.285 . D
O202 C207 1.251 . A
O202 Co219 2.035 . S
O203 C205 1.249 . A
O203 Co217 1.960 . S
O204 C207 1.269 . A
O204 Co218 2.076 . S
C205 O206 1.259 . A
O206 Co218 2.077 . S
O208 Co217 1.960 . S
O208 Co218 2.091 . S
O208 Co219 1.981 . S
O209 Co217 1.969 . S
O210 Co217 1.975 . S
O211 Co218 2.046 . S
O212 Co219 2.211 . S
O213 Co219 2.234 . S
O214 Co219 2.037 . S
O215 Co218 2.088 . S
C220 O232 1.258 . A
C220 O234 1.265 . A
C221 O231 1.246 . A
C221 O233 1.260 . A
C222 O235 1.237 . A
C222 O236 1.264 . A
C223 O237 1.241 . S
C223 O238 1.285 . D
O224 C229 1.251 . A
O224 Co241 2.035 . S
O225 C227 1.249 . A
O225 Co239 1.960 . S
O226 C229 1.269 . A
O226 Co240 2.076 . S
C227 O228 1.259 . A
O228 Co240 2.077 . S
O230 Co239 1.960 . S
O230 Co240 2.091 . S
O230 Co241 1.981 . S
O231 Co239 1.969 . S
O232 Co239 1.975 . S
O233 Co240 2.046 . S
O234 Co241 2.211 . S
O235 Co241 2.234 . S
O236 Co241 2.037 . S
O237 Co240 2.088 . S
C242 O254 1.258 . A
C242 O256 1.265 . A
C243 O253 1.246 . A
C243 O255 1.260 . A
C244 O257 1.237 . A
C244 O258 1.264 . A
C245 O259 1.241 . S
C245 O260 1.285 . D
O246 C251 1.251 . A
O246 Co263 2.035 . S
O247 C249 1.249 . A
O247 Co261 1.960 . S
O248 C251 1.269 . A
O248 Co262 2.076 . S
C249 O250 1.259 . A
O250 Co262 2.077 . S
O252 Co261 1.960 . S
O252 Co262 2.091 . S
O252 Co263 1.981 . S
O253 Co261 1.969 . S
O254 Co261 1.975 . S
O255 Co262 2.046 . S
O256 Co263 2.211 . S
O257 Co263 2.234 . S
O258 Co263 2.037 . S
O259 Co262 2.088 . S
C264 C265 1.392 . A
C264 C271 1.393 . A
C265 C266 1.395 . A
C265 H274 0.930 . S
C266 C270 1.390 . A
H267 N275 0.860 . S
H268 N275 0.860 . S
C269 C270 1.392 . A
C269 C271 1.392 . A
C269 N275 1.403 . S
C270 H272 0.930 . S
C271 H273 0.930 . S
C276 C277 1.392 . A
C276 C283 1.393 . A
C277 C278 1.395 . A
C277 H286 0.930 . S
C278 C282 1.390 . A
H279 N287 0.860 . S
H280 N287 0.860 . S
C281 C282 1.392 . A
C281 C283 1.392 . A
C281 N287 1.403 . S
C282 H284 0.930 . S
C283 H285 0.930 . S
C288 C289 1.392 . A
C288 C295 1.393 . A
C289 C290 1.395 . A
C289 H298 0.930 . S
C290 C294 1.390 . A
H291 N299 0.860 . S
H292 N299 0.860 . S
C293 C294 1.392 . A
C293 C295 1.392 . A
C293 N299 1.403 . S
C294 H296 0.930 . S
C295 H297 0.930 . S
C300 C301 1.392 . A
C300 C307 1.393 . A
C301 C302 1.395 . A
C301 H310 0.930 . S
C302 C306 1.390 . A
H303 N311 0.860 . S
H304 N311 0.860 . S
C305 C306 1.392 . A
C305 C307 1.392 . A
C305 N311 1.403 . S
C306 H308 0.930 . S
C307 H309 0.930 . S
C312 C313 1.392 . A
C312 C319 1.393 . A
C313 C314 1.395 . A
C313 H322 0.930 . S
C314 C318 1.390 . A
H315 N323 0.860 . S
H316 N323 0.860 . S
C317 C318 1.392 . A
C317 C319 1.392 . A
C317 N323 1.403 . S
C318 H320 0.930 . S
C319 H321 0.930 . S
C324 C325 1.392 . A
C324 C331 1.393 . A
C325 C326 1.395 . A
C325 H334 0.930 . S
C326 C330 1.390 . A
H327 N335 0.860 . S
H328 N335 0.860 . S
C329 C330 1.392 . A
C329 C331 1.392 . A
C329 N335 1.403 . S
C330 H332 0.930 . S
C331 H333 0.930 . S
C336 C337 1.392 . A
C336 C343 1.393 . A
C337 C338 1.395 . A
C337 H346 0.930 . S
C338 C342 1.390 . A
H339 N347 0.860 . S
H340 N347 0.860 . S
C341 C342 1.392 . A
C341 C343 1.392 . A
C341 N347 1.403 . S
C342 H344 0.930 . S
C343 H345 0.930 . S
C348 C349 1.392 . A
C348 C355 1.393 . A
C349 C350 1.395 . A
C349 H358 0.930 . S
C350 C354 1.390 . A
H351 N359 0.860 . S
H352 N359 0.860 . S
C353 C354 1.392 . A
C353 C355 1.392 . A
C353 N359 1.403 . S
C354 H356 0.930 . S
C355 H357 0.930 . S
C360 C361 1.392 . A
C360 C367 1.393 . A
C361 C362 1.395 . A
C361 H370 0.930 . S
C362 C366 1.390 . A
H363 N371 0.860 . S
H364 N371 0.860 . S
C365 C366 1.392 . A
C365 C367 1.392 . A
C365 N371 1.403 . S
C366 H368 0.930 . S
C367 H369 0.930 . S
C372 C373 1.392 . A
C372 C379 1.393 . A
C373 C374 1.395 . A
C373 H382 0.930 . S
C374 C378 1.390 . A
H375 N383 0.860 1_554 S
H376 N383 0.860 1_554 S
C377 C378 1.392 . A
C377 C379 1.392 . A
C377 N383 1.403 . S
C378 H380 0.930 . S
C379 H381 0.930 . S
C384 C385 1.392 . A
C384 C391 1.393 . A
C385 C386 1.395 . A
C385 H394 0.930 . S
C386 C390 1.390 . A
H387 N395 0.860 . S
H388 N395 0.860 . S
C389 C390 1.392 . A
C389 C391 1.392 . A
C389 N395 1.403 . S
C390 H392 0.930 . S
C391 H393 0.930 . S
C396 C397 1.392 . A
C396 C403 1.393 . A
C397 C398 1.395 . A
C397 H406 0.930 . S
C398 C402 1.390 . A
H399 N407 0.860 . S
H400 N407 0.860 . S
C401 C402 1.392 . A
C401 C403 1.392 . A
C401 N407 1.403 . S
C402 H404 0.930 . S
C403 H405 0.930 . S
C408 C409 1.392 . A
C408 C415 1.393 . A
C409 C410 1.395 . A
C409 H418 0.930 . S
C410 C414 1.390 . A
H411 N419 0.860 . S
H412 N419 0.860 . S
C413 C414 1.392 . A
C413 C415 1.392 . A
C413 N419 1.403 . S
C414 H416 0.930 . S
C415 H417 0.930 . S
C420 C421 1.392 1_565 A
C420 C427 1.393 1_565 A
C421 C422 1.395 . A
C421 H430 0.930 1_545 S
C422 C426 1.390 . A
H423 N431 0.860 . S
H424 N431 0.860 . S
C425 C426 1.392 . A
C425 C427 1.392 . A
C425 N431 1.403 . S
C426 H428 0.930 . S
C427 H429 0.930 1_545 S
C432 C433 1.392 . A
C432 C439 1.393 . A
C433 C434 1.395 1_455 A
C433 H442 0.930 1_455 S
C434 C438 1.390 . A
H435 N443 0.860 . S
H436 N443 0.860 . S
C437 C438 1.392 1_455 A
C437 C439 1.392 . A
C437 N443 1.403 . S
C438 H440 0.930 . S
C439 H441 0.930 . S
C444 C445 1.392 . A
C444 C451 1.393 . A
C445 C446 1.395 . A
C445 H454 0.930 . S
C446 C450 1.390 . A
H447 N455 0.860 . S
H448 N455 0.860 . S
C449 C450 1.392 . A
C449 C451 1.392 . A
C449 N455 1.403 . S
C450 H452 0.930 . S
C451 H453 0.930 . S
C456 C457 1.392 1_455 A
C456 C463 1.393 1_556 A
C457 C458 1.395 1_556 A
C457 H466 0.930 . S
C458 C462 1.390 . A
H459 N467 0.860 . S
H460 N467 0.860 . S
C461 C462 1.392 1_455 A
C461 C463 1.392 . A
C461 N467 1.403 . S
C462 H464 0.930 . S
C463 H465 0.930 . S
C468 C469 1.392 . A
C468 C475 1.393 1_554 A
C469 C470 1.395 1_554 A
C469 H478 0.930 . S
C470 C474 1.390 . A
H471 N479 0.860 . S
H472 N479 0.860 . S
C473 C474 1.392 . A
C473 C475 1.392 . A
C473 N479 1.403 . S
C474 H476 0.930 . S
C475 H477 0.930 1_556 S
C480 C481 1.392 1_566 A
C480 C487 1.393 1_565 A
C481 C482 1.395 . A
C481 H490 0.930 1_545 S
C482 C486 1.390 1_554 A
H483 N491 0.860 . S
H484 N491 0.860 . S
C485 C486 1.392 . A
C485 C487 1.392 . A
C485 N491 1.403 . S
C486 H488 0.930 . S
C487 H489 0.930 . S
C492 C493 1.392 . A
C492 C499 1.393 . A
C493 C494 1.395 1_565 A
C493 H502 0.930 . S
C494 C498 1.390 . A
H495 N503 0.860 . S
H496 N503 0.860 . S
C497 C498 1.392 1_565 A
C497 C499 1.392 . A
C497 N503 1.403 . S
C498 H500 0.930 . S
C499 H501 0.930 . S
C504 C505 1.392 . A
C504 C511 1.393 1_556 A
C505 C506 1.395 1_566 A
C505 H514 0.930 1_565 S
C506 C510 1.390 1_545 A
H507 N515 0.860 . S
H508 N515 0.860 . S
C509 C510 1.392 . A
C509 C511 1.392 . A
C509 N515 1.403 . S
C510 H512 0.930 . S
C511 H513 0.930 1_554 S
C516 C517 1.392 1_654 A
C516 C523 1.393 1_655 A
C517 C518 1.395 . A
C517 H526 0.930 1_455 S
C518 C522 1.390 . A
H519 N527 0.860 . S
H520 N527 0.860 . S
C521 C522 1.392 1_554 A
C521 C523 1.392 . A
C521 N527 1.403 . S
C522 H524 0.930 . S
C523 H525 0.930 1_455 S
C528 C529 1.392 1_556 A
C528 C535 1.393 . A
C529 C530 1.395 . A
C529 H538 0.930 . S
C530 C534 1.390 1_554 A
H531 N539 0.860 . S
H532 N539 0.860 . S
C533 C534 1.392 . A
C533 C535 1.392 . A
C533 N539 1.403 . S
C534 H536 0.930 . S
C535 H537 0.930 . S
C540 C541 1.392 1_455 A
C540 C547 1.393 . A
C541 C542 1.395 . A
C541 H550 0.930 . S
C542 C546 1.390 . A
H543 N551 0.860 . S
H544 N551 0.860 1_655 S
C545 C546 1.392 . A
C545 C547 1.392 1_655 A
C545 N551 1.403 1_655 S
C546 H548 0.930 . S
C547 H549 0.930 . S
C552 C553 1.392 1_545 A
C552 C559 1.393 . A
C553 C554 1.395 1_565 A
C553 H562 0.930 . S
C554 C558 1.390 . A
H555 N563 0.860 . S
H556 N563 0.860 . S
C557 C558 1.392 . A
C557 C559 1.392 . A
C557 N563 1.403 . S
C558 H560 0.930 . S
C559 H561 0.930 . S
C564 C565 1.387 1_455 A
C564 C571 1.409 . A
C565 C566 1.395 1_655 A
C565 H574 0.930 . S
C566 C570 1.390 . A
H567 N575 0.860 . S
H568 N575 0.860 . S
C569 C570 1.392 . A
C569 C571 1.392 . A
C569 N575 1.403 . S
C570 H572 0.930 . S
C571 H573 0.930 . S
C576 C577 1.392 . A
C576 C583 1.393 . A
C577 C578 1.395 . A
C577 H586 0.930 . S
C578 C582 1.390 . A
H579 N587 0.860 . S
H580 N587 0.860 . S
C581 C582 1.392 . A
C581 C583 1.392 . A
C581 N587 1.403 . S
C582 H584 0.930 . S
C583 H585 0.930 . S
C588 C589 1.392 . A
C588 C595 1.393 1_565 A
C589 C590 1.395 1_565 A
C589 H598 0.930 . S
C590 C594 1.390 . A
H591 N599 0.860 . S
H592 N599 0.860 . S
C593 C594 1.392 . A
C593 C595 1.392 . A
C593 N599 1.403 . S
C594 H596 0.930 . S
C595 H597 0.930 . S
C600 C601 1.392 . A
C600 C607 1.393 . A
C601 C602 1.395 . A
C601 H610 0.930 1_455 S
C602 C606 1.390 . A
H603 N611 0.860 . S
H604 N611 0.860 . S
C605 C606 1.392 . A
C605 C607 1.392 . A
C605 N611 1.403 . S
C606 H608 0.930 . S
C607 H609 0.930 . S
C612 C613 1.392 . A
C612 C619 1.393 . A
C613 C614 1.395 . A
C613 H622 0.930 . S
C614 C618 1.390 . A
H615 N623 0.860 . S
H616 N623 0.860 . S
C617 C618 1.392 . A
C617 C619 1.392 . A
C617 N623 1.403 . S
C618 H620 0.930 . S
C619 H621 0.930 . S
C264 C245 1.569 . S
C266 C1 1.485 . S
C276 C3 1.563 . S
C278 C23 1.484 . S
C288 C51 1.702 . S
C290 C163 1.579 . S
C300 C73 1.721 . S
C302 C53 1.658 . S
C312 C113 1.571 . S
C314 C95 1.555 . S
C324 C111 1.474 . S
C326 C135 1.554 . S
C336 C97 1.650 . S
C338 C133 1.628 . S
C348 C75 1.610 . S
C350 C161 1.647 . S
C360 C177 1.539 . S
C362 C201 1.508 . S
C372 C199 1.575 . S
C374 C223 1.445 . S
C384 C179 1.541 . S
C386 C221 1.544 . S
C396 C243 1.515 . S
C398 C25 1.426 . S
C408 C7 1.493 . S
C410 C47 1.509 . S
C420 C69 1.466 . S
C422 C29 1.536 . S
C432 C45 1.720 . S
C434 C31 1.648 . S
C444 C67 1.600 . S
C446 C251 1.657 . S
C456 C229 1.661 . S
C458 C89 1.593 . S
C468 C117 1.644 . S
C470 C185 1.489 . S
C480 C207 1.517 . S
C482 C139 1.732 . S
C492 C155 1.671 . S
C494 C9 1.487 . S
C504 C183 1.427 . S
C506 C91 1.313 . S
C516 C119 1.471 . S
C518 C205 1.620 . S
C528 C227 1.547 . S
C530 C141 1.581 . S
C540 C157 1.690 . S
C542 C249 1.675 . S
C552 C200 1.500 1_545 S
C554 C2 1.389 . S
C564 C24 1.477 1_455 S
C566 C222 1.422 . S
C576 C46 1.458 . S
C578 C134 1.523 . S
C588 C68 1.442 . S
C590 C90 1.370 . S
C600 C112 1.445 1_455 S
C602 C156 1.350 . S
C612 C244 1.329 . S
C614 C178 1.384 . S
