# Generated by pormake.
# Topology xfy, (5)-cn, num edge types: 1
# Building blocks:
#     Node 0, Type 0, BuildingBlock: N383, # of connection points: 5
#     Node 1, Type 0, BuildingBlock: N383, # of connection points: 5
#     Node 2, Type 0, BuildingBlock: N383, # of connection points: 5
#     Node 3, Type 0, BuildingBlock: N383, # of connection points: 5
#     Node 4, Type 0, BuildingBlock: N383, # of connection points: 5
#     Node 5, Type 0, BuildingBlock: N383, # of connection points: 5
#     Node 6, Type 0, BuildingBlock: N383, # of connection points: 5
#     Node 7, Type 0, BuildingBlock: N383, # of connection points: 5
#     Edge 8, Type (0, 0), BuildingBlock: E136, # of connection points: 2
#     Edge 9, Type (0, 0), BuildingBlock: E136, # of connection points: 2
#     Edge 10, Type (0, 0), BuildingBlock: E136, # of connection points: 2
#     Edge 11, Type (0, 0), BuildingBlock: E136, # of connection points: 2
#     Edge 12, Type (0, 0), BuildingBlock: E136, # of connection points: 2
#     Edge 13, Type (0, 0), BuildingBlock: E136, # of connection points: 2
#     Edge 14, Type (0, 0), BuildingBlock: E136, # of connection points: 2
#     Edge 15, Type (0, 0), BuildingBlock: E136, # of connection points: 2
#     Edge 16, Type (0, 0), BuildingBlock: E136, # of connection points: 2
#     Edge 17, Type (0, 0), BuildingBlock: E136, # of connection points: 2
#     Edge 18, Type (0, 0), BuildingBlock: E136, # of connection points: 2
#     Edge 19, Type (0, 0), BuildingBlock: E136, # of connection points: 2
#     Edge 20, Type (0, 0), BuildingBlock: E136, # of connection points: 2
#     Edge 21, Type (0, 0), BuildingBlock: E136, # of connection points: 2
#     Edge 22, Type (0, 0), BuildingBlock: E136, # of connection points: 2
#     Edge 23, Type (0, 0), BuildingBlock: E136, # of connection points: 2
#     Edge 24, Type (0, 0), BuildingBlock: E136, # of connection points: 2
#     Edge 25, Type (0, 0), BuildingBlock: E136, # of connection points: 2
#     Edge 26, Type (0, 0), BuildingBlock: E136, # of connection points: 2
#     Edge 27, Type (0, 0), BuildingBlock: E136, # of connection points: 2
# Relax obj value: 0.472
# Max RMSD: 0.338
# Mean RMSD: 0.337
data_xfy+N383+E136
_symmetry_space_group_name_H-M    P1
_symmetry_Int_Tables_number       1
_symmetry_cell_setting            triclinic
loop_
_symmetry_equiv_pos_as_xyz
'x, y, z'
_cell_length_a     26.687
_cell_length_b     26.687
_cell_length_c     52.763
_cell_angle_alpha  90.000
_cell_angle_beta   90.000
_cell_angle_gamma  90.000
loop_
_atom_site_label
_atom_site_type_symbol
_atom_site_fract_x
_atom_site_fract_y
_atom_site_fract_z
_atom_type_partial_charge
Zn0 Zn 0.04777 0.22605 0.58995 0.00000
Zn1 Zn 0.95359 0.23942 0.63370 0.00000
O2 O 0.98391 0.21172 0.57677 0.00000
O3 O 0.91294 0.23047 0.60400 0.00000
O4 O 0.99500 0.29359 0.63010 0.00000
O5 O 0.06098 0.29471 0.59905 0.00000
C6 C 0.03213 0.32264 0.61649 0.00000
H7 H 0.05815 0.13864 0.55844 0.00000
O8 O 0.92404 0.24561 0.66660 0.00000
O9 O 0.88310 0.31753 0.64794 0.00000
C10 C 0.93129 0.21693 0.57980 0.00000
C11 C 0.89572 0.28780 0.66941 0.00000
C12 C 0.02979 0.15493 0.63305 0.00000
C13 C 0.10625 0.18260 0.54365 0.00000
O14 O 0.06129 0.17783 0.61502 0.00000
O15 O 0.98396 0.17641 0.63871 0.00000
O16 O 0.09227 0.21625 0.56179 0.00000
O17 O 0.07791 0.13587 0.54662 0.00000
H18 H 0.90715 0.31884 0.63828 0.00000
Zn19 Zn 0.27428 0.44412 0.90948 0.00000
Zn20 Zn 0.26062 0.53884 0.86605 0.00000
O21 O 0.28810 0.50787 0.92292 0.00000
O22 O 0.26910 0.57912 0.89592 0.00000
O23 O 0.20670 0.49704 0.86940 0.00000
O24 O 0.20577 0.43060 0.90020 0.00000
C25 C 0.17779 0.45952 0.88281 0.00000
H26 H 0.36152 0.43383 0.94112 0.00000
O27 O 0.25448 0.56883 0.83325 0.00000
O28 O 0.18217 0.60904 0.85193 0.00000
C29 C 0.28258 0.56050 0.92008 0.00000
C30 C 0.21214 0.59692 0.83047 0.00000
C31 C 0.34560 0.46318 0.86658 0.00000
C32 C 0.31776 0.38524 0.95564 0.00000
O33 O 0.32277 0.43127 0.88445 0.00000
O34 O 0.32387 0.50896 0.86105 0.00000
O35 O 0.28415 0.39927 0.93749 0.00000
O36 O 0.36433 0.41392 0.95287 0.00000
H37 H 0.18095 0.58484 0.86150 0.00000
Zn38 Zn 0.95223 0.77395 0.58994 0.00000
Zn39 Zn 0.04641 0.76058 0.63370 0.00000
O40 O 0.01608 0.78828 0.57677 0.00000
O41 O 0.08706 0.76953 0.60400 0.00000
O42 O 0.00500 0.70641 0.63010 0.00000
O43 O 0.93902 0.70529 0.59904 0.00000
C44 C 0.96787 0.67736 0.61649 0.00000
H45 H 0.94185 0.86136 0.55843 0.00000
O46 O 0.07596 0.75439 0.66660 0.00000
O47 O 0.11690 0.68247 0.64794 0.00000
C48 C 0.06870 0.78307 0.57979 0.00000
C49 C 0.10428 0.71220 0.66941 0.00000
C50 C 0.97021 0.84508 0.63305 0.00000
C51 C 0.89375 0.81740 0.54365 0.00000
O52 O 0.93871 0.82217 0.61501 0.00000
O53 O 0.01605 0.82360 0.63871 0.00000
O54 O 0.90773 0.78375 0.56179 0.00000
O55 O 0.92209 0.86413 0.54661 0.00000
H56 H 0.09285 0.68116 0.63827 0.00000
Zn57 Zn 0.77395 0.04777 0.41006 0.00000
Zn58 Zn 0.76058 0.95359 0.36631 0.00000
O59 O 0.78828 0.98392 0.42324 0.00000
O60 O 0.76953 0.91294 0.39601 0.00000
O61 O 0.70642 0.99500 0.36991 0.00000
O62 O 0.70529 0.06098 0.40096 0.00000
C63 C 0.67736 0.03213 0.38352 0.00000
H64 H 0.86136 0.05815 0.44157 0.00000
O65 O 0.75439 0.92404 0.33340 0.00000
O66 O 0.68247 0.88310 0.35207 0.00000
C67 C 0.78307 0.93129 0.42021 0.00000
C68 C 0.71220 0.89572 0.33059 0.00000
C69 C 0.84508 0.02979 0.36695 0.00000
C70 C 0.81740 0.10625 0.45635 0.00000
O71 O 0.82217 0.06129 0.38499 0.00000
O72 O 0.82360 0.98395 0.36130 0.00000
O73 O 0.78375 0.09227 0.43822 0.00000
O74 O 0.86413 0.07791 0.45339 0.00000
H75 H 0.68116 0.90715 0.36173 0.00000
Zn76 Zn 0.22605 0.95223 0.41005 0.00000
Zn77 Zn 0.23942 0.04641 0.36630 0.00000
O78 O 0.21172 0.01608 0.42323 0.00000
O79 O 0.23047 0.08706 0.39600 0.00000
O80 O 0.29359 0.00500 0.36990 0.00000
O81 O 0.29471 0.93902 0.40095 0.00000
C82 C 0.32264 0.96787 0.38351 0.00000
H83 H 0.13864 0.94185 0.44156 0.00000
O84 O 0.24562 0.07596 0.33339 0.00000
O85 O 0.31753 0.11690 0.35206 0.00000
C86 C 0.21693 0.06870 0.42020 0.00000
C87 C 0.28780 0.10428 0.33059 0.00000
C88 C 0.15493 0.97021 0.36694 0.00000
C89 C 0.18260 0.89375 0.45635 0.00000
O90 O 0.17783 0.93871 0.38498 0.00000
O91 O 0.17641 0.01605 0.36129 0.00000
O92 O 0.21625 0.90773 0.43821 0.00000
O93 O 0.13587 0.92209 0.45338 0.00000
H94 H 0.31884 0.09285 0.36172 0.00000
Zn95 Zn 0.44412 0.72572 0.09052 0.00000
Zn96 Zn 0.53884 0.73938 0.13394 0.00000
O97 O 0.50787 0.71190 0.07708 0.00000
O98 O 0.57912 0.73090 0.10408 0.00000
O99 O 0.49704 0.79330 0.13060 0.00000
O100 O 0.43060 0.79423 0.09980 0.00000
C101 C 0.45952 0.82221 0.11718 0.00000
H102 H 0.43383 0.63848 0.05888 0.00000
O103 O 0.56883 0.74552 0.16675 0.00000
O104 O 0.60904 0.81783 0.14807 0.00000
C105 C 0.56049 0.71742 0.07991 0.00000
C106 C 0.59692 0.78786 0.16953 0.00000
C107 C 0.46318 0.65440 0.13342 0.00000
C108 C 0.38524 0.68224 0.04436 0.00000
O109 O 0.43127 0.67723 0.11554 0.00000
O110 O 0.50896 0.67613 0.13895 0.00000
O111 O 0.39927 0.71585 0.06251 0.00000
O112 O 0.41392 0.63567 0.04713 0.00000
H113 H 0.58484 0.81905 0.13850 0.00000
Zn114 Zn 0.72572 0.55588 0.90948 0.00000
Zn115 Zn 0.73938 0.46116 0.86605 0.00000
O116 O 0.71190 0.49213 0.92292 0.00000
O117 O 0.73090 0.42088 0.89592 0.00000
O118 O 0.79330 0.50296 0.86940 0.00000
O119 O 0.79423 0.56940 0.90020 0.00000
C120 C 0.82221 0.54048 0.88281 0.00000
H121 H 0.63848 0.56617 0.94112 0.00000
O122 O 0.74552 0.43117 0.83325 0.00000
O123 O 0.81783 0.39096 0.85193 0.00000
C124 C 0.71742 0.43951 0.92008 0.00000
C125 C 0.78786 0.40308 0.83047 0.00000
C126 C 0.65440 0.53682 0.86658 0.00000
C127 C 0.68224 0.61476 0.95564 0.00000
O128 O 0.67723 0.56873 0.88445 0.00000
O129 O 0.67613 0.49104 0.86105 0.00000
O130 O 0.71585 0.60073 0.93749 0.00000
O131 O 0.63567 0.58608 0.95287 0.00000
H132 H 0.81905 0.41516 0.86150 0.00000
Zn133 Zn 0.55588 0.27428 0.09052 0.00000
Zn134 Zn 0.46116 0.26062 0.13395 0.00000
O135 O 0.49213 0.28810 0.07708 0.00000
O136 O 0.42088 0.26910 0.10409 0.00000
O137 O 0.50296 0.20670 0.13061 0.00000
O138 O 0.56940 0.20577 0.09980 0.00000
C139 C 0.54048 0.17779 0.11719 0.00000
H140 H 0.56617 0.36152 0.05889 0.00000
O141 O 0.43117 0.25448 0.16676 0.00000
O142 O 0.39096 0.18217 0.14808 0.00000
C143 C 0.43950 0.28258 0.07992 0.00000
C144 C 0.40308 0.21214 0.16954 0.00000
C145 C 0.53682 0.34560 0.13343 0.00000
C146 C 0.61476 0.31776 0.04437 0.00000
O147 O 0.56873 0.32277 0.11555 0.00000
O148 O 0.49104 0.32387 0.13895 0.00000
O149 O 0.60073 0.28415 0.06252 0.00000
O150 O 0.58608 0.36433 0.04714 0.00000
H151 H 0.41516 0.18095 0.13851 0.00000
H152 H 0.92405 0.51748 0.60649 0.00000
N153 N 0.05570 0.45926 0.62435 0.00000
C154 C 0.96676 0.62640 0.62051 0.00000
C155 C 0.99308 0.52667 0.62046 0.00000
N156 N 0.97120 0.43656 0.61607 0.00000
C157 C 0.93378 0.59141 0.61325 0.00000
C158 C 0.01323 0.61133 0.62821 0.00000
H159 H 0.90121 0.60102 0.60858 0.00000
H160 H 0.03753 0.63501 0.63297 0.00000
H161 H 0.10154 0.40002 0.62587 0.00000
C162 C 0.06791 0.40949 0.62366 0.00000
H163 H 0.05450 0.55269 0.63575 0.00000
C164 C 0.00695 0.47284 0.62015 0.00000
C165 C 0.02355 0.56250 0.62889 0.00000
C166 C 0.94699 0.54137 0.61251 0.00000
C167 C 0.98276 0.38808 0.61618 0.00000
C168 C 0.03326 0.37390 0.61992 0.00000
H169 H 0.95782 0.36367 0.61381 0.00000
H170 H 0.94601 0.44137 0.86839 0.00000
N171 N 0.06338 0.52796 0.88176 0.00000
C172 C 0.87407 0.53504 0.87975 0.00000
C173 C 0.97345 0.50746 0.87963 0.00000
N174 N 0.04007 0.44259 0.87690 0.00000
C175 C 0.88736 0.48797 0.87408 0.00000
C176 C 0.91082 0.56857 0.88581 0.00000
H177 H 0.86245 0.46411 0.87056 0.00000
H178 H 0.90281 0.60211 0.88942 0.00000
H179 H 0.13769 0.53779 0.88209 0.00000
C180 C 0.11248 0.51329 0.88107 0.00000
H181 H 0.98257 0.57565 0.89231 0.00000
C182 C 0.02691 0.49223 0.87929 0.00000
C183 C 0.95821 0.55296 0.88655 0.00000
C184 C 0.93719 0.47403 0.87331 0.00000
C185 C 0.08776 0.42814 0.87702 0.00000
C186 C 0.12560 0.46500 0.87898 0.00000
H187 H 0.09618 0.39403 0.87583 0.00000
H188 H 0.52116 0.06088 0.35396 0.00000
N189 N 0.45769 0.95072 0.39251 0.00000
C190 C 0.62636 0.03341 0.37992 0.00000
C191 C 0.52661 0.00719 0.38025 0.00000
N192 N 0.43805 0.02271 0.36796 0.00000
C193 C 0.59339 0.05810 0.36542 0.00000
C194 C 0.60916 0.99565 0.39507 0.00000
H195 H 0.60437 0.08507 0.35543 0.00000
H196 H 0.63147 0.97698 0.40511 0.00000
H197 H 0.39763 0.90824 0.39979 0.00000
C198 C 0.40804 0.93801 0.39188 0.00000
H199 H 0.54870 0.96183 0.40709 0.00000
C200 C 0.47282 0.99315 0.38010 0.00000
C201 C 0.56024 0.98570 0.39539 0.00000
C202 C 0.54347 0.04441 0.36492 0.00000
C203 C 0.38955 0.01121 0.36800 0.00000
C204 C 0.37388 0.96682 0.38029 0.00000
H205 H 0.36611 0.03220 0.36002 0.00000
H206 H 0.58052 0.01254 0.12734 0.00000
N207 N 0.44164 0.96233 0.12089 0.00000
C208 C 0.53944 0.12462 0.12012 0.00000
C209 C 0.50819 0.02633 0.12035 0.00000
N210 N 0.52635 0.93498 0.12052 0.00000
C211 C 0.57254 0.08745 0.12332 0.00000
C212 C 0.49021 0.11252 0.11660 0.00000
H213 H 0.60672 0.09507 0.12506 0.00000
H214 H 0.46591 0.13776 0.11476 0.00000
H215 H 0.39288 0.90547 0.12236 0.00000
C216 C 0.42721 0.91316 0.12157 0.00000
H217 H 0.44377 0.05671 0.11174 0.00000
C218 C 0.49176 0.97323 0.12072 0.00000
C219 C 0.47717 0.06436 0.11578 0.00000
C220 C 0.55712 0.03806 0.12414 0.00000
C221 C 0.51233 0.88716 0.12039 0.00000
C222 C 0.46063 0.87570 0.12115 0.00000
H223 H 0.53634 0.86143 0.11980 0.00000
H224 H 0.00010 0.96349 0.67656 0.00000
N225 N 0.01618 0.05028 0.61631 0.00000
C226 C 0.96292 0.87470 0.64024 0.00000
C227 C 0.99166 0.97373 0.63929 0.00000
N228 N 0.01312 0.05326 0.66128 0.00000
C229 C 0.97479 0.89853 0.66175 0.00000
C230 C 0.96469 0.90086 0.61801 0.00000
H231 H 0.97243 0.88147 0.67727 0.00000
H232 H 0.95749 0.88498 0.60254 0.00000
H233 H 0.03872 0.11500 0.60094 0.00000
C234 C 0.03151 0.09920 0.61643 0.00000
H235 H 0.97468 0.96742 0.60340 0.00000
C236 C 0.00761 0.02698 0.63901 0.00000
C237 C 0.97677 0.94929 0.61862 0.00000
C238 C 0.99054 0.94785 0.66143 0.00000
C239 C 0.02651 0.10126 0.66138 0.00000
C240 C 0.03652 0.12518 0.63802 0.00000
H241 H 0.02926 0.11899 0.67671 0.00000
H242 H 0.55696 0.44059 0.85758 0.00000
N243 N 0.43604 0.52459 0.86625 0.00000
C244 C 0.62443 0.54002 0.85955 0.00000
C245 C 0.52616 0.50871 0.86001 0.00000
N246 N 0.46159 0.44242 0.85472 0.00000
C247 C 0.61322 0.49130 0.85734 0.00000
C248 C 0.58605 0.57360 0.86163 0.00000
H249 H 0.63912 0.46786 0.85518 0.00000
H250 H 0.59268 0.60795 0.86369 0.00000
H251 H 0.36201 0.53006 0.87152 0.00000
C252 C 0.38765 0.50772 0.86690 0.00000
H253 H 0.51319 0.58078 0.86052 0.00000
C254 C 0.47337 0.49133 0.86045 0.00000
C255 C 0.53904 0.55690 0.86069 0.00000
C256 C 0.56411 0.47502 0.85822 0.00000
C257 C 0.41440 0.42637 0.85457 0.00000
C258 C 0.37582 0.46027 0.86112 0.00000
H259 H 0.40683 0.39310 0.85018 0.00000
H260 H 0.01364 0.92015 0.36852 0.00000
N261 N 0.96162 0.05798 0.36024 0.00000
C262 C 0.12509 0.96215 0.36019 0.00000
C263 C 0.02643 0.99220 0.36040 0.00000
N264 N 0.93531 0.97296 0.36125 0.00000
C265 C 0.08838 0.92880 0.36405 0.00000
C266 C 0.11232 0.01100 0.35600 0.00000
H267 H 0.09644 0.89482 0.36626 0.00000
H268 H 0.13722 0.03548 0.35370 0.00000
H269 H 0.90419 0.10612 0.36125 0.00000
C270 C 0.91229 0.07185 0.36094 0.00000
H271 H 0.05586 0.05646 0.35071 0.00000
C272 C 0.97313 0.00801 0.36077 0.00000
C273 C 0.06399 0.02340 0.35521 0.00000
C274 C 0.03881 0.94366 0.36486 0.00000
C275 C 0.88732 0.98640 0.36113 0.00000
C276 C 0.87523 0.03797 0.36117 0.00000
H277 H 0.86188 0.96205 0.36100 0.00000
H278 H 0.55473 0.55538 0.15330 0.00000
N279 N 0.47486 0.43586 0.13503 0.00000
C280 C 0.46059 0.62464 0.13903 0.00000
C281 C 0.49167 0.52630 0.13908 0.00000
N282 N 0.55829 0.46183 0.14363 0.00000
C283 C 0.50707 0.61267 0.14644 0.00000
C284 C 0.42949 0.58709 0.13118 0.00000
H285 H 0.52938 0.63819 0.15123 0.00000
H286 H 0.39635 0.59413 0.12631 0.00000
H287 H 0.46783 0.36130 0.13340 0.00000
C288 C 0.49115 0.38727 0.13572 0.00000
H289 H 0.42608 0.51550 0.12355 0.00000
C290 C 0.50874 0.47339 0.13939 0.00000
C291 C 0.44688 0.54031 0.13051 0.00000
C292 C 0.52265 0.56333 0.14718 0.00000
C293 C 0.57444 0.41468 0.14353 0.00000
C294 C 0.53941 0.37571 0.13961 0.00000
H295 H 0.60854 0.40738 0.14601 0.00000
H296 H 0.81261 0.28608 0.77541 0.00000
N297 N 0.86045 0.37074 0.71883 0.00000
C298 C 0.80370 0.38456 0.81000 0.00000
C299 C 0.83395 0.35335 0.76270 0.00000
N300 N 0.85445 0.28581 0.73196 0.00000
C301 C 0.80196 0.33597 0.80374 0.00000
C302 C 0.82150 0.41790 0.79256 0.00000
H303 H 0.79112 0.31239 0.81576 0.00000
H304 H 0.82234 0.45237 0.79619 0.00000
H305 H 0.88043 0.37769 0.68246 0.00000
C306 C 0.87432 0.35413 0.69532 0.00000
H307 H 0.85274 0.42379 0.75918 0.00000
C308 C 0.84976 0.33611 0.73719 0.00000
C309 C 0.83770 0.40078 0.77029 0.00000
C310 C 0.81579 0.32003 0.77983 0.00000
C311 C 0.86944 0.26967 0.70935 0.00000
C312 C 0.87942 0.30523 0.69015 0.00000
H313 H 0.87334 0.23524 0.70618 0.00000
H314 H 0.23747 0.63095 0.75216 0.00000
N315 N 0.10023 0.67239 0.73313 0.00000
C316 C 0.19969 0.61464 0.80930 0.00000
C317 C 0.16731 0.64721 0.76259 0.00000
N318 N 0.18413 0.67276 0.71809 0.00000
C319 C 0.23139 0.61655 0.78965 0.00000
C320 C 0.15138 0.62992 0.80567 0.00000
H321 H 0.26508 0.60750 0.79200 0.00000
H322 H 0.12797 0.62816 0.81894 0.00000
H323 H 0.05071 0.69185 0.70642 0.00000
C324 C 0.08509 0.68750 0.70956 0.00000
H325 H 0.10557 0.66068 0.78131 0.00000
C326 C 0.15021 0.66430 0.73727 0.00000
C327 C 0.13798 0.64738 0.78300 0.00000
C328 C 0.21525 0.63157 0.76596 0.00000
C329 C 0.16960 0.68894 0.69541 0.00000
C330 C 0.11791 0.69626 0.69086 0.00000
H331 H 0.19326 0.69542 0.68263 0.00000
H332 H 0.60005 0.83372 0.28088 0.00000
N333 N 0.67513 0.84352 0.21642 0.00000
C334 C 0.69583 0.87780 0.31010 0.00000
C335 C 0.66416 0.84842 0.26273 0.00000
N336 N 0.60212 0.80717 0.23446 0.00000
C337 C 0.64983 0.85886 0.30681 0.00000
C338 C 0.72669 0.88141 0.28953 0.00000
H339 H 0.62864 0.85484 0.32088 0.00000
H340 H 0.75886 0.89540 0.29112 0.00000
H341 H 0.67677 0.83783 0.17863 0.00000
C342 C 0.65792 0.82944 0.19306 0.00000
H343 H 0.73329 0.86457 0.25364 0.00000
C344 C 0.64651 0.83283 0.23726 0.00000
C345 C 0.71048 0.86475 0.26719 0.00000
C346 C 0.63305 0.84522 0.28302 0.00000
C347 C 0.58612 0.79211 0.21183 0.00000
C348 C 0.61497 0.80405 0.19019 0.00000
H349 H 0.55619 0.77384 0.21025 0.00000
H350 H 0.39842 0.17020 0.28126 0.00000
N351 N 0.32618 0.15427 0.21629 0.00000
C352 C 0.30404 0.12227 0.31009 0.00000
C353 C 0.33579 0.15157 0.26272 0.00000
N354 N 0.39660 0.19497 0.23459 0.00000
C355 C 0.34912 0.14345 0.30701 0.00000
C356 C 0.27412 0.11635 0.28931 0.00000
H357 H 0.36958 0.14905 0.32121 0.00000
H358 H 0.24266 0.10078 0.29075 0.00000
H359 H 0.32555 0.15853 0.17844 0.00000
C360 C 0.34345 0.16839 0.19294 0.00000
H361 H 0.26790 0.13156 0.25321 0.00000
C362 C 0.35350 0.16715 0.23726 0.00000
C363 C 0.29023 0.13304 0.26694 0.00000
C364 C 0.36599 0.15709 0.28323 0.00000
C365 C 0.41257 0.21004 0.21196 0.00000
C366 C 0.38513 0.19586 0.19019 0.00000
H367 H 0.44159 0.22977 0.21045 0.00000
H368 H 0.24790 0.14565 0.47548 0.00000
N369 N 0.10634 0.14695 0.49770 0.00000
C370 C 0.21576 0.08036 0.42708 0.00000
C371 C 0.17739 0.12220 0.47063 0.00000
N372 N 0.18877 0.16427 0.51226 0.00000
C373 C 0.24576 0.10478 0.44324 0.00000
C374 C 0.16610 0.07611 0.43293 0.00000
H375 H 0.28024 0.10684 0.43984 0.00000
H376 H 0.14389 0.06001 0.42176 0.00000
H377 H 0.05345 0.17141 0.52155 0.00000
C378 C 0.08829 0.16898 0.51926 0.00000
H379 H 0.11611 0.08908 0.45920 0.00000
C380 C 0.15709 0.14528 0.49406 0.00000
C381 C 0.14964 0.09514 0.45474 0.00000
C382 C 0.22670 0.12708 0.46482 0.00000
C383 C 0.17129 0.18428 0.53359 0.00000
C384 C 0.11888 0.18715 0.53718 0.00000
H385 H 0.19338 0.19630 0.54606 0.00000
H386 H 0.43457 0.27754 0.01207 0.00000
N387 N 0.31326 0.36218 0.00723 0.00000
C388 C 0.42935 0.28669 0.07265 0.00000
C389 C 0.38295 0.31997 0.02921 0.00000
N390 N 0.37981 0.32933 0.98237 0.00000
C391 C 0.44677 0.27334 0.04983 0.00000
C392 C 0.38869 0.31769 0.07379 0.00000
H393 H 0.47552 0.25317 0.04871 0.00000
H394 H 0.37499 0.32700 0.08951 0.00000
H395 H 0.25914 0.39321 0.98621 0.00000
C396 C 0.29050 0.37730 0.98529 0.00000
H397 H 0.34293 0.35830 0.05343 0.00000
C398 C 0.35802 0.33733 0.00566 0.00000
C399 C 0.36879 0.33454 0.05226 0.00000
C400 C 0.42300 0.28872 0.02791 0.00000
C401 C 0.35847 0.34540 0.96109 0.00000
C402 C 0.31168 0.37007 0.96255 0.00000
H403 H 0.37420 0.34047 0.94535 0.00000
H404 H 0.77125 0.91990 0.48736 0.00000
N405 N 0.87537 0.81486 0.49231 0.00000
C406 C 0.78625 0.92118 0.42702 0.00000
C407 C 0.82348 0.87785 0.47046 0.00000
N408 N 0.82931 0.87266 0.51740 0.00000
C409 C 0.76814 0.93418 0.44976 0.00000
C410 C 0.82396 0.88665 0.42599 0.00000
H411 H 0.74317 0.95888 0.45085 0.00000
H412 H 0.83684 0.87604 0.41031 0.00000
H413 H 0.91363 0.76534 0.51318 0.00000
C414 C 0.89240 0.79335 0.51421 0.00000
H415 H 0.87022 0.84706 0.44657 0.00000
C416 C 0.84295 0.85446 0.49399 0.00000
C417 C 0.84222 0.86828 0.44757 0.00000
C418 C 0.78561 0.91173 0.47164 0.00000
C419 C 0.84708 0.85276 0.53869 0.00000
C420 C 0.87967 0.81112 0.53707 0.00000
H421 H 0.83814 0.86613 0.55454 0.00000
H422 H 0.94747 0.17913 0.51651 0.00000
N423 N 0.80553 0.14143 0.50639 0.00000
C424 C 0.92034 0.21525 0.57287 0.00000
C425 C 0.87706 0.17794 0.52944 0.00000
N426 N 0.88132 0.15509 0.48382 0.00000
C427 C 0.94819 0.20664 0.55221 0.00000
C428 C 0.87010 0.20582 0.57170 0.00000
H429 H 0.98255 0.21423 0.55247 0.00000
H430 H 0.84968 0.21058 0.58601 0.00000
H431 H 0.75234 0.10977 0.48501 0.00000
C432 C 0.78534 0.12202 0.48467 0.00000
H433 H 0.81549 0.18659 0.54901 0.00000
C434 C 0.85425 0.15744 0.50599 0.00000
C435 C 0.85049 0.18980 0.54994 0.00000
C436 C 0.92713 0.18667 0.53052 0.00000
C437 C 0.86123 0.13768 0.46250 0.00000
C438 C 0.81130 0.12003 0.46295 0.00000
H439 H 0.87987 0.13712 0.44739 0.00000
H440 H 0.15474 0.77560 0.48970 0.00000
N441 N 0.11600 0.85504 0.54989 0.00000
C442 C 0.18559 0.87752 0.46147 0.00000
C443 C 0.14435 0.84253 0.50589 0.00000
N444 N 0.10819 0.77381 0.53190 0.00000
C445 C 0.17774 0.82840 0.46482 0.00000
C446 C 0.17196 0.90965 0.48040 0.00000
H447 H 0.18562 0.80594 0.45171 0.00000
H448 H 0.17782 0.94423 0.47884 0.00000
H449 H 0.09311 0.85775 0.58597 0.00000
C450 C 0.09646 0.83636 0.57192 0.00000
H451 H 0.13819 0.91406 0.51319 0.00000
C452 C 0.12254 0.82318 0.52983 0.00000
C453 C 0.15019 0.89117 0.50111 0.00000
C454 C 0.15830 0.81028 0.48729 0.00000
C455 C 0.08774 0.75600 0.55305 0.00000
C456 C 0.08197 0.78846 0.57402 0.00000
H457 H 0.07730 0.72243 0.55405 0.00000
H458 H 0.35975 0.57816 0.01087 0.00000
N459 N 0.29189 0.64563 0.95362 0.00000
C460 C 0.37202 0.68490 0.03816 0.00000
C461 C 0.33786 0.64165 0.99407 0.00000
N462 N 0.32976 0.56842 0.96525 0.00000
C463 C 0.37632 0.63543 0.03451 0.00000
C464 C 0.35108 0.71324 0.01939 0.00000
H465 H 0.39189 0.61561 0.04693 0.00000
H466 H 0.34668 0.74791 0.02156 0.00000
H467 H 0.25455 0.64139 0.92081 0.00000
C468 C 0.27444 0.62285 0.93213 0.00000
H469 H 0.32570 0.71142 0.98466 0.00000
C470 C 0.31921 0.61783 0.97048 0.00000
C471 C 0.33703 0.69094 0.99795 0.00000
C472 C 0.35811 0.61312 0.01275 0.00000
C473 C 0.31413 0.54668 0.94399 0.00000
C474 C 0.28492 0.57489 0.92678 0.00000
H475 H 0.32236 0.51317 0.94045 0.00000
H476 H 0.56376 0.72025 0.01205 0.00000
N477 N 0.68754 0.63929 0.00715 0.00000
C478 C 0.57065 0.71322 0.07266 0.00000
C479 C 0.61707 0.68000 0.02921 0.00000
N480 N 0.61943 0.66924 0.98243 0.00000
C481 C 0.55230 0.72529 0.04984 0.00000
C482 C 0.61228 0.68354 0.07380 0.00000
H483 H 0.52290 0.74451 0.04874 0.00000
H484 H 0.62662 0.67517 0.08951 0.00000
H485 H 0.74211 0.60928 0.98605 0.00000
C486 C 0.71026 0.62417 0.98520 0.00000
H487 H 0.65882 0.64372 0.05349 0.00000
C488 C 0.64199 0.66268 0.00565 0.00000
C489 C 0.63221 0.66663 0.05229 0.00000
C490 C 0.57603 0.70995 0.02790 0.00000
C491 C 0.64078 0.65316 0.96116 0.00000
C492 C 0.68834 0.63001 0.96254 0.00000
H493 H 0.62454 0.65710 0.94548 0.00000
H494 H 0.73092 0.35253 0.01022 0.00000
N495 N 0.64787 0.38754 0.95070 0.00000
C496 C 0.63172 0.31507 0.03888 0.00000
C497 C 0.66310 0.35917 0.99447 0.00000
N498 N 0.72890 0.39989 0.96825 0.00000
C499 C 0.68019 0.32592 0.03529 0.00000
C500 C 0.59838 0.32709 0.02021 0.00000
H501 H 0.70340 0.31916 0.04823 0.00000
H502 H 0.56425 0.31913 0.02194 0.00000
H503 H 0.64293 0.41091 0.91476 0.00000
C504 C 0.66481 0.40858 0.92866 0.00000
H505 H 0.59117 0.36115 0.98761 0.00000
C506 C 0.68055 0.38256 0.97054 0.00000
C507 C 0.61502 0.35032 0.99990 0.00000
C508 C 0.69657 0.34684 0.01281 0.00000
C509 C 0.74495 0.42177 0.94711 0.00000
C510 C 0.71170 0.42597 0.92636 0.00000
H511 H 0.77781 0.43424 0.94597 0.00000
loop_
_geom_bond_atom_site_label_1
_geom_bond_atom_site_label_2
_geom_bond_distance
_geom_bond_site_symmetry_2
_ccdc_geom_bond_type
Zn0 O2 1.880 1_455 S
Zn0 O5 1.927 . S
Zn0 O14 1.880 . S
Zn0 O16 1.920 . S
Zn1 O3 1.921 . S
Zn1 O4 1.829 . S
Zn1 O8 1.914 . S
Zn1 O15 1.885 . S
O2 C10 1.420 . A
O3 C10 1.415 . A
O4 C6 1.449 1_655 A
O5 C6 1.413 . A
H7 O17 0.820 . S
O8 C11 1.364 . A
O9 C11 1.424 . A
O9 H18 0.820 . S
C12 O14 1.409 . A
C12 O15 1.383 1_455 A
C13 O16 1.364 . A
C13 O17 1.467 . A
Zn19 O21 1.880 . S
Zn19 O24 1.927 . S
Zn19 O33 1.880 . S
Zn19 O35 1.920 . S
Zn20 O22 1.921 . S
Zn20 O23 1.829 . S
Zn20 O27 1.914 . S
Zn20 O34 1.885 . S
O21 C29 1.420 . A
O22 C29 1.415 . A
O23 C25 1.449 . A
O24 C25 1.413 . A
H26 O36 0.820 . S
O27 C30 1.364 . A
O28 C30 1.424 . A
O28 H37 0.820 . S
C31 O33 1.409 . A
C31 O34 1.383 . A
C32 O35 1.364 . A
C32 O36 1.467 . A
Zn38 O40 1.880 1_655 S
Zn38 O43 1.927 . S
Zn38 O52 1.880 . S
Zn38 O54 1.920 . S
Zn39 O41 1.921 . S
Zn39 O42 1.829 . S
Zn39 O46 1.914 . S
Zn39 O53 1.885 . S
O40 C48 1.420 . A
O41 C48 1.415 . A
O42 C44 1.449 1_455 A
O43 C44 1.413 . A
H45 O55 0.820 . S
O46 C49 1.364 . A
O47 C49 1.424 . A
O47 H56 0.820 . S
C50 O52 1.409 . A
C50 O53 1.383 1_655 A
C51 O54 1.364 . A
C51 O55 1.467 . A
Zn57 O59 1.880 1_545 S
Zn57 O62 1.927 . S
Zn57 O71 1.880 . S
Zn57 O73 1.920 . S
Zn58 O60 1.921 . S
Zn58 O61 1.829 . S
Zn58 O65 1.914 . S
Zn58 O72 1.885 . S
O59 C67 1.420 . A
O60 C67 1.415 . A
O61 C63 1.449 1_565 A
O62 C63 1.413 . A
H64 O74 0.820 . S
O65 C68 1.364 . A
O66 C68 1.424 . A
O66 H75 0.820 . S
C69 O71 1.409 . A
C69 O72 1.383 1_545 A
C70 O73 1.364 . A
C70 O74 1.467 . A
Zn76 O78 1.880 1_565 S
Zn76 O81 1.927 . S
Zn76 O90 1.880 . S
Zn76 O92 1.920 . S
Zn77 O79 1.921 . S
Zn77 O80 1.829 . S
Zn77 O84 1.914 . S
Zn77 O91 1.885 . S
O78 C86 1.420 . A
O79 C86 1.415 . A
O80 C82 1.449 1_545 A
O81 C82 1.413 . A
H83 O93 0.820 . S
O84 C87 1.364 . A
O85 C87 1.424 . A
O85 H94 0.820 . S
C88 O90 1.409 . A
C88 O91 1.383 1_565 A
C89 O92 1.364 . A
C89 O93 1.467 . A
Zn95 O97 1.880 . S
Zn95 O100 1.927 . S
Zn95 O109 1.880 . S
Zn95 O111 1.920 . S
Zn96 O98 1.921 . S
Zn96 O99 1.829 . S
Zn96 O103 1.914 . S
Zn96 O110 1.885 . S
O97 C105 1.420 . A
O98 C105 1.415 . A
O99 C101 1.449 . A
O100 C101 1.413 . A
H102 O112 0.820 . S
O103 C106 1.364 . A
O104 C106 1.424 . A
O104 H113 0.820 . S
C107 O109 1.409 . A
C107 O110 1.383 . A
C108 O111 1.364 . A
C108 O112 1.467 . A
Zn114 O116 1.880 . S
Zn114 O119 1.927 . S
Zn114 O128 1.880 . S
Zn114 O130 1.920 . S
Zn115 O117 1.921 . S
Zn115 O118 1.829 . S
Zn115 O122 1.914 . S
Zn115 O129 1.885 . S
O116 C124 1.420 . A
O117 C124 1.415 . A
O118 C120 1.449 . A
O119 C120 1.413 . A
H121 O131 0.820 . S
O122 C125 1.364 . A
O123 C125 1.424 . A
O123 H132 0.820 . S
C126 O128 1.409 . A
C126 O129 1.383 . A
C127 O130 1.364 . A
C127 O131 1.467 . A
Zn133 O135 1.880 . S
Zn133 O138 1.927 . S
Zn133 O147 1.880 . S
Zn133 O149 1.920 . S
Zn134 O136 1.921 . S
Zn134 O137 1.829 . S
Zn134 O141 1.914 . S
Zn134 O148 1.885 . S
O135 C143 1.420 . A
O136 C143 1.415 . A
O137 C139 1.449 . A
O138 C139 1.413 . A
H140 O150 0.820 . S
O141 C144 1.364 . A
O142 C144 1.424 . A
O142 H151 0.820 . S
C145 O147 1.409 . A
C145 O148 1.383 . A
C146 O149 1.364 . A
C146 O150 1.467 . A
H152 C166 0.939 . S
N153 C162 1.368 . A
N153 C164 1.369 . A
C154 C157 1.339 . A
C154 C158 1.366 1_655 A
C155 C164 1.484 1_655 S
C155 C165 1.332 1_655 A
C155 C166 1.358 . A
N156 C164 1.376 1_655 A
N156 C167 1.330 . A
C157 H159 0.939 . S
C157 C166 1.382 . A
C158 H160 0.940 . S
C158 C165 1.332 . A
H161 C162 0.940 . S
C162 C168 1.340 . A
H163 C165 0.939 . S
C167 C168 1.414 1_655 A
C167 H169 0.940 . S
H170 C184 0.939 . S
N171 C180 1.368 . A
N171 C182 1.369 . A
C172 C175 1.339 . A
C172 C176 1.366 . A
C173 C182 1.484 1_655 S
C173 C183 1.332 . A
C173 C184 1.358 . A
N174 C182 1.376 . A
N174 C185 1.330 . A
C175 H177 0.939 . S
C175 C184 1.382 . A
C176 H178 0.940 . S
C176 C183 1.332 . A
H179 C180 0.940 . S
C180 C186 1.340 . A
H181 C183 0.939 . S
C185 C186 1.414 . A
C185 H187 0.940 . S
H188 C202 0.939 . S
N189 C198 1.368 . A
N189 C200 1.369 . A
C190 C193 1.339 . A
C190 C194 1.366 1_545 A
C191 C200 1.484 1_545 S
C191 C201 1.332 1_545 A
C191 C202 1.358 . A
N192 C200 1.376 1_545 A
N192 C203 1.330 . A
C193 H195 0.939 . S
C193 C202 1.382 . A
C194 H196 0.940 . S
C194 C201 1.332 . A
H197 C198 0.940 . S
C198 C204 1.340 . A
H199 C201 0.939 . S
C203 C204 1.414 1_545 A
C203 H205 0.940 . S
H206 C220 0.939 . S
N207 C216 1.368 . A
N207 C218 1.369 . A
C208 C211 1.339 . A
C208 C212 1.366 . A
C209 C218 1.484 1_545 S
C209 C219 1.332 . A
C209 C220 1.358 . A
N210 C218 1.376 . A
N210 C221 1.330 . A
C211 H213 0.939 . S
C211 C220 1.382 . A
C212 H214 0.940 . S
C212 C219 1.332 . A
H215 C216 0.940 . S
C216 C222 1.340 . A
H217 C219 0.939 . S
C221 C222 1.414 . A
C221 H223 0.940 . S
H224 C238 0.936 1_455 S
N225 C234 1.368 . A
N225 C236 1.369 . A
C226 C229 1.339 . A
C226 C230 1.366 . A
C227 C236 1.484 1_665 S
C227 C237 1.332 . A
C227 C238 1.358 . A
N228 C236 1.376 . A
N228 C239 1.330 . A
C229 H231 0.939 . S
C229 C238 1.382 . A
C230 H232 0.940 . S
C230 C237 1.332 . A
H233 C234 0.940 . S
C234 C240 1.340 . A
H235 C237 0.939 . S
C239 C240 1.414 . A
C239 H241 0.940 . S
H242 C256 0.939 . S
N243 C252 1.368 . A
N243 C254 1.369 . A
C244 C247 1.339 . A
C244 C248 1.366 . A
C245 C254 1.484 . S
C245 C255 1.332 . A
C245 C256 1.358 . A
N246 C254 1.376 . A
N246 C257 1.330 . A
C247 H249 0.939 . S
C247 C256 1.382 . A
C248 H250 0.940 . S
C248 C255 1.332 . A
H251 C252 0.940 . S
C252 C258 1.340 . A
H253 C255 0.939 . S
C257 C258 1.414 . A
C257 H259 0.940 . S
H260 C274 0.939 . S
N261 C270 1.368 . A
N261 C272 1.369 . A
C262 C265 1.339 . A
C262 C266 1.366 1_565 A
C263 C272 1.484 1_465 S
C263 C273 1.332 1_565 A
C263 C274 1.358 . A
N264 C272 1.376 1_565 A
N264 C275 1.330 . A
C265 H267 0.939 . S
C265 C274 1.382 . A
C266 H268 0.940 . S
C266 C273 1.332 . A
H269 C270 0.940 . S
C270 C276 1.340 . A
H271 C273 0.939 . S
C275 C276 1.414 1_565 A
C275 H277 0.940 . S
H278 C292 0.939 . S
N279 C288 1.368 . A
N279 C290 1.369 . A
C280 C283 1.339 . A
C280 C284 1.366 . A
C281 C290 1.484 . S
C281 C291 1.332 . A
C281 C292 1.358 . A
N282 C290 1.376 . A
N282 C293 1.330 . A
C283 H285 0.939 . S
C283 C292 1.382 . A
C284 H286 0.940 . S
C284 C291 1.332 . A
H287 C288 0.940 . S
C288 C294 1.340 . A
H289 C291 0.939 . S
C293 C294 1.414 . A
C293 H295 0.940 . S
H296 C310 0.939 . S
N297 C306 1.368 . A
N297 C308 1.369 . A
C298 C301 1.339 . A
C298 C302 1.366 . A
C299 C308 1.484 . S
C299 C309 1.332 . A
C299 C310 1.358 . A
N300 C308 1.376 . A
N300 C311 1.330 . A
C301 H303 0.939 . S
C301 C310 1.382 . A
C302 H304 0.940 . S
C302 C309 1.332 . A
H305 C306 0.940 . S
C306 C312 1.340 . A
H307 C309 0.939 . S
C311 C312 1.414 . A
C311 H313 0.940 . S
H314 C328 0.939 . S
N315 C324 1.368 . A
N315 C326 1.369 . A
C316 C319 1.339 . A
C316 C320 1.366 . A
C317 C326 1.484 . S
C317 C327 1.332 . A
C317 C328 1.358 . A
N318 C326 1.376 . A
N318 C329 1.330 . A
C319 H321 0.939 . S
C319 C328 1.382 . A
C320 H322 0.940 . S
C320 C327 1.332 . A
H323 C324 0.940 . S
C324 C330 1.340 . A
H325 C327 0.939 . S
C329 C330 1.414 . A
C329 H331 0.940 . S
H332 C346 0.939 . S
N333 C342 1.368 . A
N333 C344 1.369 . A
C334 C337 1.339 . A
C334 C338 1.366 . A
C335 C344 1.484 . S
C335 C345 1.332 . A
C335 C346 1.358 . A
N336 C344 1.376 . A
N336 C347 1.330 . A
C337 H339 0.939 . S
C337 C346 1.382 . A
C338 H340 0.940 . S
C338 C345 1.332 . A
H341 C342 0.940 . S
C342 C348 1.340 . A
H343 C345 0.939 . S
C347 C348 1.414 . A
C347 H349 0.940 . S
H350 C364 0.939 . S
N351 C360 1.368 . A
N351 C362 1.369 . A
C352 C355 1.339 . A
C352 C356 1.366 . A
C353 C362 1.484 . S
C353 C363 1.332 . A
C353 C364 1.358 . A
N354 C362 1.376 . A
N354 C365 1.330 . A
C355 H357 0.939 . S
C355 C364 1.382 . A
C356 H358 0.940 . S
C356 C363 1.332 . A
H359 C360 0.940 . S
C360 C366 1.340 . A
H361 C363 0.939 . S
C365 C366 1.414 . A
C365 H367 0.940 . S
H368 C382 0.939 . S
N369 C378 1.368 . A
N369 C380 1.369 . A
C370 C373 1.339 . A
C370 C374 1.366 . A
C371 C380 1.484 . S
C371 C381 1.332 . A
C371 C382 1.358 . A
N372 C380 1.376 . A
N372 C383 1.330 . A
C373 H375 0.939 . S
C373 C382 1.382 . A
C374 H376 0.940 . S
C374 C381 1.332 . A
H377 C378 0.940 . S
C378 C384 1.340 . A
H379 C381 0.939 . S
C383 C384 1.414 . A
C383 H385 0.940 . S
H386 C400 0.939 . S
N387 C396 1.368 1_554 A
N387 C398 1.369 . A
C388 C391 1.339 . A
C388 C392 1.366 . A
C389 C398 1.484 . S
C389 C399 1.332 . A
C389 C400 1.358 . A
N390 C398 1.376 1_556 A
N390 C401 1.330 . A
C391 H393 0.939 . S
C391 C400 1.382 . A
C392 H394 0.940 . S
C392 C399 1.332 . A
H395 C396 0.940 . S
C396 C402 1.340 . A
H397 C399 0.939 . S
C401 C402 1.414 . A
C401 H403 0.940 . S
H404 C418 0.939 . S
N405 C414 1.368 . A
N405 C416 1.369 . A
C406 C409 1.339 . A
C406 C410 1.366 . A
C407 C416 1.484 . S
C407 C417 1.332 . A
C407 C418 1.358 . A
N408 C416 1.376 . A
N408 C419 1.330 . A
C409 H411 0.939 . S
C409 C418 1.382 . A
C410 H412 0.940 . S
C410 C417 1.332 . A
H413 C414 0.940 . S
C414 C420 1.340 . A
H415 C417 0.939 . S
C419 C420 1.414 . A
C419 H421 0.940 . S
H422 C436 0.939 . S
N423 C432 1.368 . A
N423 C434 1.369 . A
C424 C427 1.339 . A
C424 C428 1.366 . A
C425 C434 1.484 . S
C425 C435 1.332 . A
C425 C436 1.358 . A
N426 C434 1.376 . A
N426 C437 1.330 . A
C427 H429 0.939 . S
C427 C436 1.382 . A
C428 H430 0.940 . S
C428 C435 1.332 . A
H431 C432 0.940 . S
C432 C438 1.340 . A
H433 C435 0.939 . S
C437 C438 1.414 . A
C437 H439 0.940 . S
H440 C454 0.939 . S
N441 C450 1.368 . A
N441 C452 1.369 . A
C442 C445 1.339 . A
C442 C446 1.366 . A
C443 C452 1.484 . S
C443 C453 1.332 . A
C443 C454 1.358 . A
N444 C452 1.376 . A
N444 C455 1.330 . A
C445 H447 0.939 . S
C445 C454 1.382 . A
C446 H448 0.940 . S
C446 C453 1.332 . A
H449 C450 0.940 . S
C450 C456 1.340 . A
H451 C453 0.939 . S
C455 C456 1.414 . A
C455 H457 0.940 . S
H458 C472 0.939 . S
N459 C468 1.368 . A
N459 C470 1.369 . A
C460 C463 1.339 . A
C460 C464 1.366 . A
C461 C470 1.484 . S
C461 C471 1.332 . A
C461 C472 1.358 1_556 A
N462 C470 1.376 . A
N462 C473 1.330 . A
C463 H465 0.939 . S
C463 C472 1.382 . A
C464 H466 0.940 . S
C464 C471 1.332 1_554 A
H467 C468 0.940 . S
C468 C474 1.340 . A
H469 C471 0.939 . S
C473 C474 1.414 . A
C473 H475 0.940 . S
H476 C490 0.939 . S
N477 C486 1.368 1_554 A
N477 C488 1.369 . A
C478 C481 1.339 . A
C478 C482 1.366 . A
C479 C488 1.484 . S
C479 C489 1.332 . A
C479 C490 1.358 . A
N480 C488 1.376 1_556 A
N480 C491 1.330 . A
C481 H483 0.939 . S
C481 C490 1.382 . A
C482 H484 0.940 . S
C482 C489 1.332 . A
H485 C486 0.940 . S
C486 C492 1.340 . A
H487 C489 0.939 . S
C491 C492 1.414 . A
C491 H493 0.940 . S
H494 C508 0.939 . S
N495 C504 1.368 . A
N495 C506 1.369 . A
C496 C499 1.339 . A
C496 C500 1.366 . A
C497 C506 1.484 . S
C497 C507 1.336 . A
C497 C508 1.358 1_556 A
N498 C506 1.376 . A
N498 C509 1.330 . A
C499 H501 0.939 . S
C499 C508 1.382 . A
C500 H502 0.940 . S
C500 C507 1.315 1_554 A
H503 C504 0.940 . S
C504 C510 1.340 . A
H505 C507 0.953 . S
C509 C510 1.414 . A
C509 H511 0.940 . S
C154 C44 1.377 . S
C168 C6 1.380 . S
C172 C120 1.401 . S
C186 C25 1.415 . S
C190 C63 1.375 . S
C204 C82 1.378 . S
C208 C139 1.427 . S
C222 C101 1.443 . S
C226 C50 0.898 . S
C240 C12 0.855 . S
C244 C126 0.886 . S
C258 C31 0.860 . S
C262 C88 0.899 . S
C276 C69 0.888 . S
C280 C107 0.850 . S
C294 C145 0.870 . S
C298 C125 1.260 . S
C312 C11 1.266 . S
C316 C30 1.258 . S
C330 C49 1.263 . S
C334 C68 1.261 . S
C348 C106 1.268 . S
C352 C87 1.260 . S
C366 C144 1.267 . S
C370 C86 0.479 . S
C384 C13 0.495 . S
C388 C143 0.482 . S
C402 C32 0.569 . S
C406 C67 0.458 . S
C420 C51 0.538 . S
C424 C10 0.470 . S
C438 C70 0.532 . S
C442 C89 0.517 . S
C456 C48 0.489 . S
C460 C108 0.486 . S
C474 C29 0.526 . S
C478 C105 0.482 . S
C492 C127 0.570 . S
C496 C146 0.542 . S
C510 C124 0.514 . S
