# Generated by pormake.
# Topology yan, (7)-cn, num edge types: 1
# Building blocks:
#     Node 0, Type 0, BuildingBlock: N233, # of connection points: 7
#     Node 1, Type 0, BuildingBlock: N233, # of connection points: 7
#     Node 2, Type 0, BuildingBlock: N233, # of connection points: 7
#     Node 3, Type 0, BuildingBlock: N233, # of connection points: 7
#     Node 4, Type 0, BuildingBlock: N233, # of connection points: 7
#     Node 5, Type 0, BuildingBlock: N233, # of connection points: 7
#     Node 6, Type 0, BuildingBlock: N233, # of connection points: 7
#     Node 7, Type 0, BuildingBlock: N233, # of connection points: 7
#     Edge 8, Type (0, 0), BuildingBlock: E219, # of connection points: 2
#     Edge 9, Type (0, 0), BuildingBlock: E219, # of connection points: 2
#     Edge 10, Type (0, 0), BuildingBlock: E219, # of connection points: 2
#     Edge 11, Type (0, 0), BuildingBlock: E219, # of connection points: 2
#     Edge 12, Type (0, 0), BuildingBlock: E219, # of connection points: 2
#     Edge 13, Type (0, 0), BuildingBlock: E219, # of connection points: 2
#     Edge 14, Type (0, 0), BuildingBlock: E219, # of connection points: 2
#     Edge 15, Type (0, 0), BuildingBlock: E219, # of connection points: 2
#     Edge 16, Type (0, 0), BuildingBlock: E219, # of connection points: 2
#     Edge 17, Type (0, 0), BuildingBlock: E219, # of connection points: 2
#     Edge 18, Type (0, 0), BuildingBlock: E219, # of connection points: 2
#     Edge 19, Type (0, 0), BuildingBlock: E219, # of connection points: 2
#     Edge 20, Type (0, 0), BuildingBlock: E219, # of connection points: 2
#     Edge 21, Type (0, 0), BuildingBlock: E219, # of connection points: 2
#     Edge 22, Type (0, 0), BuildingBlock: E219, # of connection points: 2
#     Edge 23, Type (0, 0), BuildingBlock: E219, # of connection points: 2
#     Edge 24, Type (0, 0), BuildingBlock: E219, # of connection points: 2
#     Edge 25, Type (0, 0), BuildingBlock: E219, # of connection points: 2
#     Edge 26, Type (0, 0), BuildingBlock: E219, # of connection points: 2
#     Edge 27, Type (0, 0), BuildingBlock: E219, # of connection points: 2
#     Edge 28, Type (0, 0), BuildingBlock: E219, # of connection points: 2
#     Edge 29, Type (0, 0), BuildingBlock: E219, # of connection points: 2
#     Edge 30, Type (0, 0), BuildingBlock: E219, # of connection points: 2
#     Edge 31, Type (0, 0), BuildingBlock: E219, # of connection points: 2
#     Edge 32, Type (0, 0), BuildingBlock: E219, # of connection points: 2
#     Edge 33, Type (0, 0), BuildingBlock: E219, # of connection points: 2
#     Edge 34, Type (0, 0), BuildingBlock: E219, # of connection points: 2
#     Edge 35, Type (0, 0), BuildingBlock: E219, # of connection points: 2
# Relax obj value: 0.258
# Max RMSD: 0.157
# Mean RMSD: 0.157
data_yan+N233+E219
_symmetry_space_group_name_H-M    P1
_symmetry_Int_Tables_number       1
_symmetry_cell_setting            triclinic
loop_
_symmetry_equiv_pos_as_xyz
'x, y, z'
_cell_length_a     36.783
_cell_length_b     36.784
_cell_length_c     15.417
_cell_angle_alpha  90.000
_cell_angle_beta   90.000
_cell_angle_gamma  90.002
loop_
_atom_site_label
_atom_site_type_symbol
_atom_site_fract_x
_atom_site_fract_y
_atom_site_fract_z
_atom_type_partial_charge
O0 O 0.94049 0.15964 0.88544 0.00000
O1 O 0.88798 0.17059 0.84613 0.00000
O2 O 0.95010 0.16954 0.07712 0.00000
O3 O 0.90133 0.18560 0.13118 0.00000
C4 C 0.95577 0.07827 0.00249 0.00000
C5 C 0.91897 0.18389 0.85926 0.00000
In6 In 0.91310 0.13230 0.11855 0.00000
C7 C 0.93044 0.19631 0.09701 0.00000
O8 O 0.93679 0.17016 0.29617 0.00000
O9 O 0.94489 0.11670 0.22515 0.00000
O10 O 0.87539 0.13435 0.21375 0.00000
O11 O 0.87206 0.09629 0.11393 0.00000
C12 C 0.85692 0.10873 0.18125 0.00000
In13 In 0.90186 0.12009 0.88489 0.00000
O14 O 0.94045 0.08636 0.92975 0.00000
O15 O 0.90789 0.13778 0.68258 0.00000
C16 C 0.94877 0.13927 0.29885 0.00000
O17 O 0.92359 0.09305 0.77687 0.00000
O18 O 0.85612 0.11333 0.81397 0.00000
O19 O 0.94741 0.09400 0.07458 0.00000
O20 O 0.86307 0.08722 0.93277 0.00000
C21 C 0.84175 0.09260 0.86978 0.00000
C22 C 0.92007 0.10720 0.69198 0.00000
O23 O 0.88708 0.13551 0.00454 0.00000
O24 O 0.84036 0.44046 0.13526 0.00000
O25 O 0.82941 0.38794 0.09597 0.00000
O26 O 0.83046 0.45007 0.32694 0.00000
O27 O 0.81440 0.40130 0.38102 0.00000
C28 C 0.92173 0.45574 0.25232 0.00000
C29 C 0.81611 0.41894 0.10909 0.00000
In30 In 0.86770 0.41308 0.36839 0.00000
C31 C 0.80369 0.43042 0.34683 0.00000
O32 O 0.82984 0.43678 0.54600 0.00000
O33 O 0.88329 0.44487 0.47497 0.00000
O34 O 0.86565 0.37537 0.46360 0.00000
O35 O 0.90371 0.37204 0.36377 0.00000
C36 C 0.89126 0.35690 0.43110 0.00000
In37 In 0.87992 0.40183 0.13472 0.00000
O38 O 0.91364 0.44042 0.17958 0.00000
O39 O 0.86222 0.40785 0.93241 0.00000
C40 C 0.86072 0.44876 0.54868 0.00000
O41 O 0.90695 0.42355 0.02671 0.00000
O42 O 0.88667 0.35609 0.06382 0.00000
O43 O 0.90600 0.44739 0.32440 0.00000
O44 O 0.91278 0.36304 0.18262 0.00000
C45 C 0.90740 0.34172 0.11964 0.00000
C46 C 0.89281 0.42003 0.94181 0.00000
O47 O 0.86449 0.38706 0.25437 0.00000
O48 O 0.65964 0.05949 0.63531 0.00000
O49 O 0.67060 0.11200 0.59600 0.00000
O50 O 0.66953 0.04989 0.82700 0.00000
O51 O 0.68559 0.09866 0.88106 0.00000
C52 C 0.57827 0.04421 0.75234 0.00000
C53 C 0.68390 0.08101 0.60914 0.00000
In54 In 0.63229 0.08688 0.86842 0.00000
C55 C 0.69631 0.06954 0.84689 0.00000
O56 O 0.67014 0.06320 0.04605 0.00000
O57 O 0.61669 0.05510 0.97501 0.00000
O58 O 0.63434 0.12460 0.96361 0.00000
O59 O 0.59629 0.12793 0.86377 0.00000
C60 C 0.60872 0.14307 0.93110 0.00000
In61 In 0.62009 0.09812 0.63474 0.00000
O62 O 0.58636 0.05953 0.67960 0.00000
O63 O 0.63780 0.09209 0.43244 0.00000
C64 C 0.63925 0.05122 0.04872 0.00000
O65 O 0.59306 0.07639 0.52672 0.00000
O66 O 0.61334 0.14386 0.56382 0.00000
O67 O 0.59400 0.05257 0.82443 0.00000
O68 O 0.58722 0.13691 0.68261 0.00000
C69 C 0.59261 0.15822 0.61963 0.00000
C70 C 0.60721 0.07991 0.44184 0.00000
O71 O 0.63551 0.11290 0.75440 0.00000
O72 O 0.34036 0.94051 0.63531 0.00000
O73 O 0.32940 0.88800 0.59600 0.00000
O74 O 0.33047 0.95011 0.82700 0.00000
O75 O 0.31441 0.90134 0.88106 0.00000
C76 C 0.42173 0.95579 0.75234 0.00000
C77 C 0.31610 0.91899 0.60914 0.00000
In78 In 0.36771 0.91312 0.86842 0.00000
C79 C 0.30369 0.93046 0.84689 0.00000
O80 O 0.32985 0.93680 0.04605 0.00000
O81 O 0.38331 0.94490 0.97501 0.00000
O82 O 0.36566 0.87540 0.96361 0.00000
O83 O 0.40371 0.87207 0.86377 0.00000
C84 C 0.39127 0.85693 0.93110 0.00000
In85 In 0.37991 0.90188 0.63474 0.00000
O86 O 0.41364 0.94047 0.67960 0.00000
O87 O 0.36220 0.90791 0.43244 0.00000
C88 C 0.36074 0.94878 0.04872 0.00000
O89 O 0.40694 0.92361 0.52672 0.00000
O90 O 0.38666 0.85614 0.56382 0.00000
O91 O 0.40600 0.94742 0.82443 0.00000
O92 O 0.41278 0.86309 0.68261 0.00000
C93 C 0.40739 0.84177 0.61963 0.00000
C94 C 0.39279 0.92009 0.44184 0.00000
O95 O 0.36449 0.88710 0.75440 0.00000
O96 O 0.15964 0.55954 0.13526 0.00000
O97 O 0.17059 0.61206 0.09597 0.00000
O98 O 0.16954 0.54993 0.32694 0.00000
O99 O 0.18560 0.59870 0.38102 0.00000
C100 C 0.07827 0.54425 0.25232 0.00000
C101 C 0.18389 0.58106 0.10909 0.00000
In102 In 0.13230 0.58692 0.36839 0.00000
C103 C 0.19631 0.56958 0.34683 0.00000
O104 O 0.17016 0.56322 0.54600 0.00000
O105 O 0.11671 0.55513 0.47497 0.00000
O106 O 0.13435 0.62463 0.46360 0.00000
O107 O 0.09629 0.62796 0.36377 0.00000
C108 C 0.10873 0.64310 0.43110 0.00000
In109 In 0.12008 0.59817 0.13472 0.00000
O110 O 0.08636 0.55958 0.17958 0.00000
O111 O 0.13778 0.59215 0.93241 0.00000
C112 C 0.13927 0.55124 0.54868 0.00000
O113 O 0.09305 0.57645 0.02671 0.00000
O114 O 0.11333 0.64391 0.06382 0.00000
O115 O 0.09400 0.55261 0.32440 0.00000
O116 O 0.08722 0.63696 0.18262 0.00000
C117 C 0.09260 0.65828 0.11964 0.00000
C118 C 0.10719 0.57997 0.94181 0.00000
O119 O 0.13551 0.61294 0.25437 0.00000
O120 O 0.44049 0.65966 0.38514 0.00000
O121 O 0.38798 0.67062 0.34585 0.00000
O122 O 0.45010 0.66956 0.57683 0.00000
O123 O 0.40133 0.68561 0.63090 0.00000
C124 C 0.45577 0.57829 0.50218 0.00000
C125 C 0.41898 0.68391 0.35897 0.00000
In126 In 0.41311 0.63232 0.61825 0.00000
C127 C 0.43045 0.69633 0.59672 0.00000
O128 O 0.43681 0.67017 0.79588 0.00000
O129 O 0.44490 0.61672 0.72484 0.00000
O130 O 0.37540 0.63436 0.71346 0.00000
O131 O 0.37206 0.59631 0.61363 0.00000
C132 C 0.35692 0.60875 0.68096 0.00000
In133 In 0.40186 0.62011 0.38459 0.00000
O134 O 0.44045 0.58639 0.42944 0.00000
O135 O 0.40789 0.63781 0.18228 0.00000
C136 C 0.44878 0.63928 0.79855 0.00000
O137 O 0.42358 0.59308 0.27656 0.00000
O138 O 0.35612 0.61336 0.31367 0.00000
O139 O 0.44741 0.59402 0.57427 0.00000
O140 O 0.36307 0.58725 0.43247 0.00000
C141 C 0.34175 0.59263 0.36949 0.00000
C142 C 0.42006 0.60723 0.19168 0.00000
O143 O 0.38709 0.63553 0.50424 0.00000
O144 O 0.05951 0.84036 0.88544 0.00000
O145 O 0.11202 0.82941 0.84613 0.00000
O146 O 0.04991 0.83046 0.07712 0.00000
O147 O 0.09868 0.81441 0.13118 0.00000
C148 C 0.04423 0.92173 0.00249 0.00000
C149 C 0.08103 0.81611 0.85926 0.00000
In150 In 0.08690 0.86770 0.11855 0.00000
C151 C 0.06956 0.80369 0.09701 0.00000
O152 O 0.06321 0.82984 0.29617 0.00000
O153 O 0.05511 0.88330 0.22515 0.00000
O154 O 0.12461 0.86566 0.21375 0.00000
O155 O 0.12795 0.90371 0.11393 0.00000
C156 C 0.14308 0.89127 0.18125 0.00000
In157 In 0.09814 0.87991 0.88489 0.00000
O158 O 0.05955 0.91364 0.92975 0.00000
O159 O 0.09211 0.86222 0.68258 0.00000
C160 C 0.05123 0.86073 0.29885 0.00000
O161 O 0.07642 0.90695 0.77687 0.00000
O162 O 0.14388 0.88667 0.81397 0.00000
O163 O 0.05259 0.90600 0.07458 0.00000
O164 O 0.13693 0.91278 0.93277 0.00000
C165 C 0.15825 0.90740 0.86978 0.00000
C166 C 0.07993 0.89280 0.69198 0.00000
O167 O 0.11292 0.86450 0.00454 0.00000
O168 O 0.55951 0.34034 0.38514 0.00000
O169 O 0.61202 0.32938 0.34585 0.00000
O170 O 0.54990 0.33045 0.57683 0.00000
O171 O 0.59867 0.31439 0.63090 0.00000
C172 C 0.54423 0.42171 0.50218 0.00000
C173 C 0.58102 0.31609 0.35897 0.00000
In174 In 0.58689 0.36768 0.61826 0.00000
C175 C 0.56955 0.30367 0.59672 0.00000
O176 O 0.56319 0.32983 0.79588 0.00000
O177 O 0.55510 0.38328 0.72484 0.00000
O178 O 0.62460 0.36564 0.71346 0.00000
O179 O 0.62794 0.40369 0.61363 0.00000
C180 C 0.64308 0.39125 0.68096 0.00000
In181 In 0.59814 0.37989 0.38459 0.00000
O182 O 0.55956 0.41362 0.42944 0.00000
O183 O 0.59211 0.36219 0.18228 0.00000
C184 C 0.55122 0.36072 0.79855 0.00000
O185 O 0.57642 0.40692 0.27656 0.00000
O186 O 0.64388 0.38664 0.31367 0.00000
O187 O 0.55259 0.40598 0.57427 0.00000
O188 O 0.63693 0.41276 0.43247 0.00000
C189 C 0.65825 0.40737 0.36949 0.00000
C190 C 0.57994 0.39277 0.19168 0.00000
O191 O 0.61292 0.36447 0.50424 0.00000
H192 H 0.03968 0.95218 0.94786 0.00000
C193 C 0.99209 0.96195 0.02019 0.00000
H194 H 0.04695 0.95055 0.04822 0.00000
H195 H 0.97520 0.95511 0.97448 0.00000
C196 C 0.03002 0.94367 0.00306 0.00000
H197 H 0.98234 0.95318 0.07479 0.00000
C198 C 0.99535 0.00310 0.02321 0.00000
C199 C 0.95844 0.02247 0.03493 0.00000
H200 H 0.00668 0.01152 0.97013 0.00000
H201 H 0.01126 0.00977 0.07112 0.00000
H202 H 0.94327 0.01636 0.98565 0.00000
H203 H 0.94686 0.01281 0.08632 0.00000
C204 C 0.95977 0.06260 0.04266 0.00000
H205 H 0.97359 0.06893 0.09406 0.00000
H206 H 0.93524 0.07161 0.05034 0.00000
H207 H 0.95291 0.45877 0.20064 0.00000
C208 C 0.96174 0.50832 0.26578 0.00000
H209 H 0.94993 0.45438 0.30176 0.00000
H210 H 0.95553 0.52386 0.21694 0.00000
C211 C 0.94367 0.46997 0.25346 0.00000
H212 H 0.95225 0.51960 0.31798 0.00000
C213 C 0.00283 0.50522 0.27246 0.00000
C214 C 0.02206 0.54240 0.27964 0.00000
H215 H 0.01195 0.49242 0.22201 0.00000
H216 H 0.00884 0.49072 0.32333 0.00000
H217 H 0.01663 0.55613 0.22757 0.00000
H218 H 0.01173 0.55540 0.32827 0.00000
C219 C 0.06207 0.54136 0.29061 0.00000
H220 H 0.06770 0.52905 0.34459 0.00000
H221 H 0.07099 0.56606 0.29498 0.00000
H222 H 0.56067 0.01230 0.80948 0.00000
C223 C 0.51837 0.03404 0.73342 0.00000
H224 H 0.56804 0.00736 0.70978 0.00000
H225 H 0.50942 0.05078 0.77732 0.00000
C226 C 0.55909 0.02415 0.75312 0.00000
H227 H 0.51687 0.04616 0.67764 0.00000
C228 C 0.49459 0.00010 0.73239 0.00000
C229 C 0.45392 0.00875 0.71822 0.00000
H230 H 0.49754 0.98739 0.78678 0.00000
H231 H 0.50291 0.98425 0.68620 0.00000
H232 H 0.44580 0.02390 0.76587 0.00000
H233 H 0.45156 0.02278 0.66545 0.00000
C234 C 0.42934 0.97693 0.71228 0.00000
H235 H 0.43629 0.96245 0.66241 0.00000
H236 H 0.40478 0.98554 0.70282 0.00000
H237 H 0.48731 0.56049 0.55992 0.00000
C238 C 0.46610 0.51843 0.48227 0.00000
H239 H 0.49293 0.56817 0.46057 0.00000
H240 H 0.44906 0.50934 0.52536 0.00000
C241 C 0.47584 0.55908 0.50309 0.00000
H242 H 0.45435 0.51710 0.42601 0.00000
C243 C 0.49987 0.49466 0.48212 0.00000
C244 C 0.49149 0.45403 0.46689 0.00000
H245 H 0.51238 0.49743 0.53704 0.00000
H246 H 0.51620 0.50312 0.43670 0.00000
H247 H 0.47602 0.44576 0.51380 0.00000
H248 H 0.47782 0.45184 0.41355 0.00000
C249 C 0.52335 0.42948 0.46173 0.00000
H250 H 0.53817 0.43658 0.41255 0.00000
H251 H 0.51481 0.40495 0.45149 0.00000
H252 H 0.93833 0.21398 0.02183 0.00000
C253 C 0.91427 0.23416 0.13607 0.00000
H254 H 0.96443 0.21051 0.10208 0.00000
H255 H 0.88927 0.23144 0.11661 0.00000
C256 C 0.93949 0.20777 0.08316 0.00000
H257 H 0.91518 0.22771 0.19706 0.00000
C258 C 0.92598 0.27348 0.12480 0.00000
C259 C 0.90076 0.30071 0.17156 0.00000
H260 H 0.92665 0.27922 0.06347 0.00000
H261 H 0.95055 0.27624 0.14734 0.00000
H262 H 0.87665 0.29832 0.14686 0.00000
H263 H 0.89928 0.29382 0.23200 0.00000
C264 C 0.91156 0.33947 0.16683 0.00000
H265 H 0.93498 0.34237 0.19485 0.00000
H266 H 0.89400 0.35380 0.19878 0.00000
H267 H 0.79154 0.44023 0.40301 0.00000
C268 C 0.75651 0.44282 0.29513 0.00000
H269 H 0.79903 0.40867 0.33669 0.00000
H270 H 0.75101 0.46858 0.30058 0.00000
C271 C 0.79355 0.43432 0.34163 0.00000
H272 H 0.75866 0.43726 0.23383 0.00000
C273 C 0.72564 0.42078 0.33412 0.00000
C274 C 0.68824 0.42970 0.29397 0.00000
H275 H 0.72474 0.42518 0.39607 0.00000
H276 H 0.73072 0.39505 0.32559 0.00000
H277 H 0.68312 0.45513 0.30498 0.00000
H278 H 0.68995 0.42650 0.23183 0.00000
C279 C 0.65710 0.40793 0.32600 0.00000
H280 H 0.66127 0.38259 0.31181 0.00000
H281 H 0.63534 0.41570 0.29591 0.00000
H282 H 0.55154 0.28442 0.52893 0.00000
C283 C 0.59106 0.26597 0.61746 0.00000
H284 H 0.53983 0.29131 0.62556 0.00000
H285 H 0.61133 0.26686 0.57703 0.00000
C286 C 0.56013 0.29225 0.58568 0.00000
H287 H 0.59984 0.27401 0.67362 0.00000
C288 C 0.57740 0.22711 0.62441 0.00000
C289 C 0.60735 0.19983 0.65063 0.00000
H290 H 0.56712 0.21985 0.56918 0.00000
H291 H 0.55800 0.22622 0.66732 0.00000
H292 H 0.62598 0.20031 0.60619 0.00000
H293 H 0.61827 0.20817 0.70412 0.00000
C294 C 0.59556 0.16164 0.66275 0.00000
H295 H 0.57808 0.16070 0.70976 0.00000
H296 H 0.61645 0.14726 0.67960 0.00000
H297 H 0.29501 0.90984 0.85568 0.00000
C298 C 0.25786 0.95314 0.86738 0.00000
H299 H 0.29166 0.93216 0.76915 0.00000
H300 H 0.25935 0.95504 0.93019 0.00000
C301 C 0.29311 0.93425 0.83163 0.00000
H302 H 0.25619 0.97758 0.84404 0.00000
C303 C 0.22400 0.93184 0.84291 0.00000
C304 C 0.18875 0.94817 0.88080 0.00000
H305 H 0.22660 0.90700 0.86291 0.00000
H306 H 0.22201 0.93120 0.77995 0.00000
H307 H 0.19073 0.94773 0.94347 0.00000
H308 H 0.18723 0.97334 0.86299 0.00000
C309 C 0.15443 0.92978 0.85605 0.00000
H310 H 0.15144 0.93150 0.79370 0.00000
H311 H 0.13432 0.94250 0.88295 0.00000
H312 H 0.08237 0.79493 0.13579 0.00000
C313 C 0.04544 0.75624 0.08697 0.00000
H314 H 0.08139 0.79485 0.03390 0.00000
H315 H 0.03059 0.75484 0.13904 0.00000
C316 C 0.06645 0.79342 0.08545 0.00000
H317 H 0.02933 0.75493 0.03724 0.00000
C318 C 0.07161 0.72430 0.08513 0.00000
C319 C 0.05237 0.68709 0.09156 0.00000
H320 H 0.08870 0.72670 0.13263 0.00000
H321 H 0.08545 0.72517 0.03133 0.00000
H322 H 0.03953 0.68626 0.14641 0.00000
H323 H 0.03446 0.68566 0.04575 0.00000
C324 C 0.07612 0.65464 0.08592 0.00000
H325 H 0.08787 0.65441 0.02962 0.00000
H326 H 0.06111 0.63308 0.09006 0.00000
H327 H 0.20720 0.56654 0.40319 0.00000
C328 C 0.24396 0.55245 0.30399 0.00000
H329 H 0.20184 0.59064 0.32001 0.00000
H330 H 0.24856 0.52789 0.32460 0.00000
C331 C 0.20644 0.56613 0.34006 0.00000
H332 H 0.24304 0.55171 0.24112 0.00000
C333 C 0.27481 0.57713 0.33270 0.00000
C334 C 0.31257 0.56368 0.30305 0.00000
H335 H 0.27450 0.57910 0.39538 0.00000
H336 H 0.27068 0.60135 0.30916 0.00000
H337 H 0.31670 0.54001 0.32883 0.00000
H338 H 0.31203 0.56055 0.24078 0.00000
C339 C 0.34379 0.58740 0.32519 0.00000
H340 H 0.34066 0.61064 0.29650 0.00000
H341 H 0.36580 0.57638 0.30291 0.00000
H342 H 0.43433 0.82987 0.66411 0.00000
C343 C 0.39572 0.79575 0.60453 0.00000
H344 H 0.43021 0.83828 0.56467 0.00000
H345 H 0.38251 0.78992 0.65737 0.00000
C346 C 0.41689 0.83247 0.61700 0.00000
H347 H 0.37810 0.79849 0.55815 0.00000
C348 C 0.42152 0.76480 0.58296 0.00000
C349 C 0.40227 0.72765 0.57497 0.00000
H350 H 0.44006 0.76332 0.62751 0.00000
H351 H 0.43367 0.77024 0.52836 0.00000
H352 H 0.39115 0.72216 0.63043 0.00000
H353 H 0.38298 0.72993 0.53268 0.00000
C354 C 0.42554 0.69650 0.54986 0.00000
H355 H 0.43552 0.70107 0.49267 0.00000
H356 H 0.41055 0.67491 0.54631 0.00000
H357 H 0.70498 0.08347 0.88302 0.00000
C358 C 0.74366 0.04526 0.84018 0.00000
H359 H 0.70552 0.08014 0.78142 0.00000
H360 H 0.74473 0.03163 0.89416 0.00000
C361 C 0.70662 0.06640 0.83489 0.00000
H362 H 0.74510 0.02801 0.79269 0.00000
C363 C 0.77577 0.07117 0.83576 0.00000
C364 C 0.81283 0.05190 0.84571 0.00000
H365 H 0.77326 0.08934 0.88087 0.00000
H366 H 0.77524 0.08374 0.78019 0.00000
H367 H 0.81333 0.04034 0.90219 0.00000
H368 H 0.81436 0.03295 0.80237 0.00000
C369 C 0.84546 0.07530 0.83782 0.00000
H370 H 0.84601 0.08573 0.78007 0.00000
H371 H 0.86691 0.06029 0.84451 0.00000
H372 H 0.90646 0.11746 0.63055 0.00000
C373 C 0.95778 0.10448 0.57843 0.00000
H374 H 0.91119 0.07539 0.61697 0.00000
H375 H 0.96986 0.12655 0.59781 0.00000
C376 C 0.92339 0.09724 0.63633 0.00000
H377 H 0.97477 0.08449 0.58490 0.00000
C378 C 0.94741 0.10846 0.48352 0.00000
C379 C 0.98003 0.11770 0.42448 0.00000
H380 H 0.92916 0.12733 0.47807 0.00000
H381 H 0.93653 0.08579 0.46378 0.00000
H382 H 0.98995 0.14077 0.44343 0.00000
H383 H 0.99855 0.09939 0.43306 0.00000
C384 C 0.97220 0.12024 0.33038 0.00000
H385 H 0.96376 0.09676 0.31007 0.00000
H386 H 0.99459 0.12584 0.30013 0.00000
H387 H 0.85593 0.43120 0.60635 0.00000
C388 C 0.89934 0.45830 0.66764 0.00000
H389 H 0.84671 0.47215 0.62528 0.00000
H390 H 0.91820 0.44176 0.64772 0.00000
C391 C 0.86561 0.45584 0.60543 0.00000
H392 H 0.90918 0.48277 0.66601 0.00000
C393 C 0.88896 0.44868 0.76021 0.00000
C394 C 0.92164 0.44866 0.82305 0.00000
H395 H 0.87761 0.42491 0.76074 0.00000
H396 H 0.87104 0.46617 0.78073 0.00000
H397 H 0.93877 0.43046 0.80312 0.00000
H398 H 0.93349 0.47208 0.81938 0.00000
C399 C 0.91322 0.44123 0.91536 0.00000
H400 H 0.89734 0.46023 0.93692 0.00000
H401 H 0.93561 0.44218 0.94834 0.00000
H402 H 0.61405 0.02199 0.11426 0.00000
C403 C 0.64559 0.05862 0.18749 0.00000
H404 H 0.61182 0.06176 0.07745 0.00000
H405 H 0.66184 0.04039 0.21168 0.00000
C406 C 0.62814 0.04375 0.10152 0.00000
H407 H 0.65992 0.08010 0.17457 0.00000
C408 C 0.61659 0.06805 0.25394 0.00000
C409 C 0.63244 0.08082 0.34150 0.00000
H410 H 0.60133 0.04694 0.26350 0.00000
H411 H 0.60125 0.08724 0.23044 0.00000
H412 H 0.64683 0.06111 0.36516 0.00000
H413 H 0.64866 0.10101 0.33053 0.00000
C414 C 0.60567 0.09217 0.40805 0.00000
H415 H 0.59222 0.11294 0.38636 0.00000
H416 H 0.61871 0.09981 0.45949 0.00000
H417 H 0.42081 0.91012 0.35710 0.00000
C418 C 0.37002 0.93423 0.33122 0.00000
H419 H 0.41839 0.94986 0.39401 0.00000
H420 H 0.35682 0.91152 0.32397 0.00000
C421 C 0.40509 0.92735 0.38699 0.00000
H422 H 0.35422 0.95113 0.36147 0.00000
C423 C 0.37959 0.94952 0.24259 0.00000
C424 C 0.34616 0.95481 0.18336 0.00000
H425 H 0.39670 0.93334 0.21441 0.00000
H426 H 0.39162 0.97288 0.25034 0.00000
H427 H 0.33506 0.93121 0.17437 0.00000
H428 H 0.32876 0.96988 0.21367 0.00000
C429 C 0.35328 0.97130 0.09733 0.00000
H430 H 0.36292 0.99558 0.10574 0.00000
H431 H 0.33044 0.97349 0.06652 0.00000
H432 H 0.11100 0.54945 0.90238 0.00000
C433 C 0.08500 0.57434 0.79614 0.00000
H434 H 0.12054 0.59099 0.89559 0.00000
H435 H 0.06552 0.55659 0.79124 0.00000
C436 C 0.10103 0.57347 0.89057 0.00000
H437 H 0.07475 0.59818 0.78476 0.00000
C438 C 0.11411 0.56598 0.72914 0.00000
C439 C 0.09928 0.56445 0.63554 0.00000
H440 H 0.12539 0.54292 0.74327 0.00000
H441 H 0.13285 0.58463 0.73236 0.00000
H442 H 0.08138 0.54515 0.63279 0.00000
H443 H 0.08692 0.58710 0.62353 0.00000
C444 C 0.12651 0.55815 0.56631 0.00000
H445 H 0.14363 0.57820 0.56612 0.00000
H446 H 0.11416 0.55800 0.51083 0.00000
H447 H 0.40609 0.61708 0.12974 0.00000
C448 C 0.45778 0.60500 0.07846 0.00000
H449 H 0.41168 0.57508 0.11674 0.00000
H450 H 0.46938 0.62735 0.09774 0.00000
C451 C 0.42340 0.59721 0.13599 0.00000
H452 H 0.47515 0.58537 0.08541 0.00000
C453 C 0.44756 0.60858 0.98337 0.00000
C454 C 0.48013 0.61833 0.92465 0.00000
H455 H 0.42896 0.62707 0.97745 0.00000
H456 H 0.43718 0.58565 0.96377 0.00000
H457 H 0.48955 0.64164 0.94346 0.00000
H458 H 0.49899 0.60040 0.93371 0.00000
C459 C 0.47248 0.62052 0.83042 0.00000
H460 H 0.46455 0.59683 0.81029 0.00000
H461 H 0.49483 0.62649 0.80040 0.00000
H462 H 0.04596 0.89881 0.64807 0.00000
C463 C 0.08199 0.90983 0.54520 0.00000
H464 H 0.08154 0.87531 0.65415 0.00000
H465 H 0.07249 0.93391 0.53230 0.00000
C466 C 0.07227 0.89933 0.64120 0.00000
H467 H 0.10821 0.91069 0.53866 0.00000
C468 C 0.06621 0.88262 0.48135 0.00000
C469 C 0.07323 0.89287 0.38570 0.00000
H470 H 0.04025 0.88065 0.49098 0.00000
H471 H 0.07686 0.85885 0.49269 0.00000
H472 H 0.06166 0.91609 0.37479 0.00000
H473 H 0.09913 0.89607 0.37788 0.00000
C474 C 0.06012 0.86659 0.31990 0.00000
H475 H 0.07276 0.84371 0.32797 0.00000
H476 H 0.06625 0.87573 0.26283 0.00000
H477 H 0.55666 0.39293 0.83878 0.00000
C478 C 0.52985 0.36881 0.94488 0.00000
H479 H 0.56668 0.35161 0.84869 0.00000
H480 H 0.51009 0.38633 0.94751 0.00000
C481 C 0.54688 0.36891 0.85144 0.00000
H482 H 0.51980 0.34496 0.95709 0.00000
C483 C 0.55810 0.37829 0.01310 0.00000
C484 C 0.54225 0.38060 0.10565 0.00000
H485 H 0.56923 0.40134 0.99826 0.00000
H486 H 0.57712 0.35987 0.01217 0.00000
H487 H 0.52407 0.39967 0.10612 0.00000
H488 H 0.53006 0.35791 0.11828 0.00000
C489 C 0.56863 0.38801 0.17611 0.00000
H490 H 0.58600 0.36822 0.17857 0.00000
H491 H 0.55567 0.38857 0.23078 0.00000
H492 H 0.91403 0.28917 0.49878 0.00000
C493 C 0.91451 0.30939 0.62658 0.00000
H494 H 0.87576 0.30404 0.52685 0.00000
H495 H 0.94054 0.31392 0.62890 0.00000
C496 C 0.90163 0.30871 0.52945 0.00000
H497 H 0.90240 0.32910 0.65685 0.00000
C498 C 0.90616 0.27364 0.67169 0.00000
C499 C 0.92018 0.27216 0.76601 0.00000
H500 H 0.91692 0.25392 0.63884 0.00000
H501 H 0.87994 0.26996 0.67186 0.00000
H502 H 0.94638 0.27489 0.76461 0.00000
H503 H 0.91031 0.29276 0.79707 0.00000
C504 C 0.91143 0.23872 0.81536 0.00000
H505 H 0.88523 0.23663 0.82035 0.00000
H506 H 0.92130 0.24102 0.87333 0.00000
H507 H 0.75440 0.44268 0.02523 0.00000
C508 C 0.76595 0.40437 0.92752 0.00000
H509 H 0.75133 0.40257 0.05951 0.00000
H510 H 0.78018 0.42075 0.89147 0.00000
C511 C 0.76561 0.41871 0.02350 0.00000
H512 H 0.77745 0.38064 0.92576 0.00000
C513 C 0.72765 0.40161 0.89127 0.00000
C514 C 0.72663 0.38961 0.79534 0.00000
H515 H 0.71574 0.42499 0.89696 0.00000
H516 H 0.71398 0.38417 0.92583 0.00000
H517 H 0.73950 0.40771 0.76150 0.00000
H518 H 0.73978 0.36695 0.79015 0.00000
C519 C 0.69004 0.38463 0.75692 0.00000
H520 H 0.67756 0.36542 0.78804 0.00000
H521 H 0.69283 0.37690 0.69724 0.00000
H522 H 0.58371 0.28776 0.22102 0.00000
C523 C 0.59952 0.23337 0.24108 0.00000
H524 H 0.55315 0.26509 0.26735 0.00000
H525 H 0.62555 0.23792 0.23871 0.00000
C526 C 0.57908 0.26947 0.26533 0.00000
H527 H 0.59518 0.21529 0.28571 0.00000
C528 C 0.58682 0.21879 0.15401 0.00000
C529 C 0.60759 0.18443 0.12486 0.00000
H530 H 0.58966 0.23760 0.11051 0.00000
H531 H 0.56102 0.21307 0.15790 0.00000
H532 H 0.63305 0.19079 0.11905 0.00000
H533 H 0.60566 0.16642 0.17032 0.00000
C534 C 0.59541 0.16769 0.04240 0.00000
H535 H 0.57041 0.15979 0.04894 0.00000
H536 H 0.61014 0.14637 0.03124 0.00000
H537 H 0.27613 0.89236 0.50201 0.00000
C538 C 0.23031 0.92618 0.48789 0.00000
H539 H 0.28711 0.93266 0.48063 0.00000
H540 H 0.21389 0.91102 0.52163 0.00000
C541 C 0.27068 0.91774 0.51436 0.00000
H542 H 0.22480 0.95138 0.50102 0.00000
C543 C 0.22410 0.91917 0.39193 0.00000
C544 C 0.18427 0.92506 0.36362 0.00000
H545 H 0.23127 0.89445 0.37850 0.00000
H546 H 0.23968 0.93538 0.35859 0.00000
H547 H 0.16923 0.90809 0.39562 0.00000
H548 H 0.17709 0.94936 0.38037 0.00000
C549 C 0.17659 0.92042 0.26992 0.00000
H550 H 0.19034 0.93839 0.23765 0.00000
H551 H 0.15101 0.92502 0.25995 0.00000
H552 H 0.05498 0.75945 0.76493 0.00000
C553 C 0.10082 0.76378 0.68373 0.00000
H554 H 0.09094 0.74832 0.81311 0.00000
H555 H 0.09011 0.78118 0.64367 0.00000
C556 C 0.08047 0.76571 0.77319 0.00000
H557 H 0.12613 0.77038 0.69189 0.00000
C558 C 0.09853 0.72590 0.64484 0.00000
C559 C 0.11634 0.72310 0.55442 0.00000
H560 H 0.07321 0.71882 0.64064 0.00000
H561 H 0.11047 0.70886 0.68387 0.00000
H562 H 0.10355 0.73948 0.51577 0.00000
H563 H 0.14117 0.73155 0.55899 0.00000
C564 C 0.11667 0.68647 0.51439 0.00000
H565 H 0.13078 0.67027 0.55080 0.00000
H566 H 0.12867 0.68803 0.45861 0.00000
H567 H 0.22941 0.60959 0.01308 0.00000
C568 C 0.26704 0.56861 0.98076 0.00000
H569 H 0.21010 0.57448 0.97771 0.00000
H570 H 0.28646 0.57749 0.01796 0.00000
C571 C 0.22949 0.58313 0.01481 0.00000
H572 H 0.26722 0.54226 0.98332 0.00000
C573 C 0.27402 0.58088 0.88817 0.00000
C574 C 0.31155 0.56906 0.85336 0.00000
H575 H 0.27211 0.60713 0.88532 0.00000
H576 H 0.25519 0.57079 0.85086 0.00000
H577 H 0.33001 0.58009 0.88970 0.00000
H578 H 0.31358 0.54298 0.85964 0.00000
C579 C 0.31949 0.57859 0.76191 0.00000
H580 H 0.30209 0.56636 0.72476 0.00000
H581 H 0.34348 0.56963 0.74733 0.00000
H582 H 0.40894 0.83051 0.07929 0.00000
C583 C 0.38889 0.77693 0.07364 0.00000
H584 H 0.43043 0.80667 0.01203 0.00000
H585 H 0.36484 0.78260 0.09614 0.00000
C586 C 0.40643 0.81217 0.03413 0.00000
H587 H 0.38607 0.75881 0.02840 0.00000
C588 C 0.41219 0.76153 0.14623 0.00000
C589 C 0.39508 0.72803 0.19062 0.00000
H590 H 0.41631 0.78031 0.18922 0.00000
H591 H 0.43575 0.75471 0.12250 0.00000
H592 H 0.37213 0.73547 0.21588 0.00000
H593 H 0.38987 0.71008 0.14647 0.00000
C594 C 0.41717 0.71052 0.25930 0.00000
H595 H 0.43952 0.70155 0.23372 0.00000
H596 H 0.40387 0.68983 0.28173 0.00000
H597 H 0.79695 0.07426 0.25939 0.00000
C598 C 0.80883 0.09828 0.38011 0.00000
H599 H 0.79432 0.11686 0.25564 0.00000
H600 H 0.82286 0.07796 0.40263 0.00000
C601 C 0.80841 0.09677 0.27829 0.00000
H602 H 0.82057 0.12056 0.39886 0.00000
C603 C 0.77053 0.09672 0.41679 0.00000
C604 C 0.76956 0.09602 0.51689 0.00000
H605 H 0.75838 0.07528 0.39455 0.00000
H606 H 0.75707 0.11786 0.39647 0.00000
H607 H 0.78221 0.07434 0.53606 0.00000
H608 H 0.78294 0.11683 0.53813 0.00000
C609 C 0.73299 0.09628 0.55722 0.00000
H610 H 0.72074 0.11866 0.54144 0.00000
H611 H 0.73582 0.09606 0.61967 0.00000
loop_
_geom_bond_atom_site_label_1
_geom_bond_atom_site_label_2
_geom_bond_distance
_geom_bond_site_symmetry_2
_ccdc_geom_bond_type
O0 C5 1.259 . A
O0 In13 2.034 . S
O1 C5 1.257 . A
O1 In13 2.017 . S
O2 In6 2.034 . S
O2 C7 1.259 . A
O3 In6 2.017 . S
O3 C7 1.257 . A
C4 O14 1.290 1_554 A
C4 O19 1.290 . A
In6 O9 2.097 . S
In6 O10 2.021 . S
In6 O11 2.010 . S
In6 O19 2.009 . S
In6 O23 2.005 . S
O8 C16 1.219 . D
O9 C16 1.414 . S
O10 C12 1.265 . A
O11 C12 1.264 . A
In13 O14 2.008 . S
In13 O17 2.098 . S
In13 O18 2.022 . S
In13 O20 2.011 . S
In13 O23 2.005 1_556 S
O15 C22 1.220 . D
O17 C22 1.414 . S
O18 C21 1.265 . A
O20 C21 1.264 . A
O24 C29 1.259 . A
O24 In37 2.034 . S
O25 C29 1.257 . A
O25 In37 2.017 . S
O26 In30 2.034 . S
O26 C31 1.259 . A
O27 In30 2.017 . S
O27 C31 1.257 . A
C28 O38 1.290 . A
C28 O43 1.290 . A
In30 O33 2.097 . S
In30 O34 2.021 . S
In30 O35 2.010 . S
In30 O43 2.009 . S
In30 O47 2.005 . S
O32 C40 1.219 . D
O33 C40 1.414 . S
O34 C36 1.265 . A
O35 C36 1.264 . A
In37 O38 2.008 . S
In37 O41 2.098 . S
In37 O42 2.022 . S
In37 O44 2.011 . S
In37 O47 2.005 . S
O39 C46 1.220 . D
O41 C46 1.414 1_554 S
O42 C45 1.265 . A
O44 C45 1.264 . A
O48 C53 1.259 . A
O48 In61 2.034 . S
O49 C53 1.257 . A
O49 In61 2.017 . S
O50 In54 2.034 . S
O50 C55 1.259 . A
O51 In54 2.017 . S
O51 C55 1.257 . A
C52 O62 1.290 . A
C52 O67 1.290 . A
In54 O57 2.097 . S
In54 O58 2.021 . S
In54 O59 2.010 . S
In54 O67 2.009 . S
In54 O71 2.005 . S
O56 C64 1.219 . D
O57 C64 1.414 1_556 S
O58 C60 1.265 . A
O59 C60 1.264 . A
In61 O62 2.008 . S
In61 O65 2.098 . S
In61 O66 2.022 . S
In61 O68 2.011 . S
In61 O71 2.005 . S
O63 C70 1.220 . D
O65 C70 1.414 . S
O66 C69 1.265 . A
O68 C69 1.264 . A
O72 C77 1.259 . A
O72 In85 2.034 . S
O73 C77 1.257 . A
O73 In85 2.017 . S
O74 In78 2.034 . S
O74 C79 1.259 . A
O75 In78 2.017 . S
O75 C79 1.257 . A
C76 O86 1.290 . A
C76 O91 1.290 . A
In78 O81 2.097 . S
In78 O82 2.021 . S
In78 O83 2.010 . S
In78 O91 2.009 . S
In78 O95 2.005 . S
O80 C88 1.219 . D
O81 C88 1.414 1_556 S
O82 C84 1.265 . A
O83 C84 1.264 . A
In85 O86 2.008 . S
In85 O89 2.098 . S
In85 O90 2.022 . S
In85 O92 2.011 . S
In85 O95 2.005 . S
O87 C94 1.220 . D
O89 C94 1.414 . S
O90 C93 1.265 . A
O92 C93 1.264 . A
O96 C101 1.259 . A
O96 In109 2.034 . S
O97 C101 1.257 . A
O97 In109 2.017 . S
O98 In102 2.034 . S
O98 C103 1.259 . A
O99 In102 2.017 . S
O99 C103 1.257 . A
C100 O110 1.290 . A
C100 O115 1.290 . A
In102 O105 2.097 . S
In102 O106 2.021 . S
In102 O107 2.010 . S
In102 O115 2.009 . S
In102 O119 2.005 . S
O104 C112 1.219 . D
O105 C112 1.414 . S
O106 C108 1.265 . A
O107 C108 1.264 . A
In109 O110 2.008 . S
In109 O113 2.098 . S
In109 O114 2.022 . S
In109 O116 2.011 . S
In109 O119 2.005 . S
O111 C118 1.220 . D
O113 C118 1.414 1_554 S
O114 C117 1.265 . A
O116 C117 1.264 . A
O120 C125 1.259 . A
O120 In133 2.034 . S
O121 C125 1.257 . A
O121 In133 2.017 . S
O122 In126 2.034 . S
O122 C127 1.259 . A
O123 In126 2.017 . S
O123 C127 1.257 . A
C124 O134 1.290 . A
C124 O139 1.290 . A
In126 O129 2.097 . S
In126 O130 2.021 . S
In126 O131 2.010 . S
In126 O139 2.009 . S
In126 O143 2.005 . S
O128 C136 1.219 . D
O129 C136 1.414 . S
O130 C132 1.265 . A
O131 C132 1.264 . A
In133 O134 2.008 . S
In133 O137 2.098 . S
In133 O138 2.022 . S
In133 O140 2.011 . S
In133 O143 2.005 . S
O135 C142 1.220 . D
O137 C142 1.414 . S
O138 C141 1.265 . A
O140 C141 1.264 . A
O144 C149 1.259 . A
O144 In157 2.034 . S
O145 C149 1.257 . A
O145 In157 2.017 . S
O146 In150 2.034 . S
O146 C151 1.259 . A
O147 In150 2.017 . S
O147 C151 1.257 . A
C148 O158 1.290 1_554 A
C148 O163 1.290 . A
In150 O153 2.097 . S
In150 O154 2.021 . S
In150 O155 2.010 . S
In150 O163 2.009 . S
In150 O167 2.005 . S
O152 C160 1.219 . D
O153 C160 1.414 . S
O154 C156 1.265 . A
O155 C156 1.264 . A
In157 O158 2.008 . S
In157 O161 2.098 . S
In157 O162 2.022 . S
In157 O164 2.011 . S
In157 O167 2.005 1_556 S
O159 C166 1.220 . D
O161 C166 1.414 . S
O162 C165 1.265 . A
O164 C165 1.264 . A
O168 C173 1.259 . A
O168 In181 2.034 . S
O169 C173 1.257 . A
O169 In181 2.017 . S
O170 In174 2.034 . S
O170 C175 1.259 . A
O171 In174 2.017 . S
O171 C175 1.257 . A
C172 O182 1.290 . A
C172 O187 1.290 . A
In174 O177 2.097 . S
In174 O178 2.021 . S
In174 O179 2.010 . S
In174 O187 2.009 . S
In174 O191 2.005 . S
O176 C184 1.219 . D
O177 C184 1.414 . S
O178 C180 1.265 . A
O179 C180 1.264 . A
In181 O182 2.008 . S
In181 O185 2.098 . S
In181 O186 2.022 . S
In181 O188 2.011 . S
In181 O191 2.005 . S
O183 C190 1.220 . D
O185 C190 1.414 . S
O186 C189 1.265 . A
O188 C189 1.264 . A
H192 C196 0.974 1_556 S
C193 H195 0.973 1_554 S
C193 C196 1.571 1_655 S
C193 H197 0.970 . S
C193 C198 1.519 1_565 S
H194 C196 0.968 . S
C198 C199 1.544 . S
C198 H200 0.969 1_654 S
C198 H201 0.974 1_655 S
C199 H202 0.969 1_554 S
C199 H203 0.967 . S
C199 C204 1.482 . S
C204 H205 0.970 . S
C204 H206 0.968 . S
H207 C211 0.974 . S
C208 H210 0.973 . S
C208 C211 1.571 . S
C208 H212 0.970 . S
C208 C213 1.519 1_655 S
H209 C211 0.968 . S
C213 C214 1.544 . S
C213 H215 0.969 . S
C213 H216 0.974 . S
C214 H217 0.969 . S
C214 H218 0.967 . S
C214 C219 1.482 . S
C219 H220 0.970 . S
C219 H221 0.968 . S
H222 C226 0.974 . S
C223 H225 0.973 . S
C223 C226 1.571 . S
C223 H227 0.970 . S
C223 C228 1.524 . S
H224 C226 0.968 . S
C228 C229 1.545 . S
C228 H230 0.966 1_545 S
C228 H231 0.970 1_545 S
C229 H232 0.969 . S
C229 H233 0.967 . S
C229 C234 1.482 1_545 S
C234 H235 0.970 . S
C234 H236 0.968 . S
H237 C241 0.974 . S
C238 H240 0.973 . S
C238 C241 1.571 . S
C238 H242 0.970 . S
C238 C243 1.519 . S
H239 C241 0.968 . S
C243 C244 1.544 . S
C243 H245 0.969 . S
C243 H246 0.974 . S
C244 H247 0.969 . S
C244 H248 0.967 . S
C244 C249 1.482 . S
C249 H250 0.970 . S
C249 H251 0.968 . S
H252 C256 0.974 . S
C253 H255 0.973 . S
C253 C256 1.571 . S
C253 H257 0.970 . S
C253 C258 1.519 . S
H254 C256 0.968 . S
C258 C259 1.544 . S
C258 H260 0.969 . S
C258 H261 0.974 . S
C259 H262 0.969 . S
C259 H263 0.967 . S
C259 C264 1.482 . S
C264 H265 0.970 . S
C264 H266 0.968 . S
H267 C271 0.974 . S
C268 H270 0.973 . S
C268 C271 1.571 . S
C268 H272 0.970 . S
C268 C273 1.519 . S
H269 C271 0.968 . S
C273 C274 1.544 . S
C273 H275 0.969 . S
C273 H276 0.974 . S
C274 H277 0.969 . S
C274 H278 0.967 . S
C274 C279 1.482 . S
C279 H280 0.970 . S
C279 H281 0.968 . S
H282 C286 0.974 . S
C283 H285 0.973 . S
C283 C286 1.571 . S
C283 H287 0.970 . S
C283 C288 1.519 . S
H284 C286 0.968 . S
C288 C289 1.544 . S
C288 H290 0.969 . S
C288 H291 0.974 . S
C289 H292 0.969 . S
C289 H293 0.967 . S
C289 C294 1.482 . S
C294 H295 0.970 . S
C294 H296 0.968 . S
H297 C301 0.974 . S
C298 H300 0.973 . S
C298 C301 1.571 . S
C298 H302 0.970 . S
C298 C303 1.519 . S
H299 C301 0.968 . S
C303 C304 1.544 . S
C303 H305 0.969 . S
C303 H306 0.974 . S
C304 H307 0.969 . S
C304 H308 0.967 . S
C304 C309 1.482 . S
C309 H310 0.970 . S
C309 H311 0.968 . S
H312 C316 0.974 . S
C313 H315 0.973 . S
C313 C316 1.571 . S
C313 H317 0.970 . S
C313 C318 1.519 . S
H314 C316 0.968 . S
C318 C319 1.544 . S
C318 H320 0.969 . S
C318 H321 0.974 . S
C319 H322 0.969 . S
C319 H323 0.967 . S
C319 C324 1.482 . S
C324 H325 0.970 . S
C324 H326 0.968 . S
H327 C331 0.974 . S
C328 H330 0.973 . S
C328 C331 1.571 . S
C328 H332 0.970 . S
C328 C333 1.519 . S
H329 C331 0.968 . S
C333 C334 1.544 . S
C333 H335 0.969 . S
C333 H336 0.974 . S
C334 H337 0.969 . S
C334 H338 0.967 . S
C334 C339 1.482 . S
C339 H340 0.970 . S
C339 H341 0.968 . S
H342 C346 0.974 . S
C343 H345 0.973 . S
C343 C346 1.571 . S
C343 H347 0.970 . S
C343 C348 1.519 . S
H344 C346 0.968 . S
C348 C349 1.544 . S
C348 H350 0.969 . S
C348 H351 0.974 . S
C349 H352 0.969 . S
C349 H353 0.967 . S
C349 C354 1.482 . S
C354 H355 0.970 . S
C354 H356 0.968 . S
H357 C361 0.974 . S
C358 H360 0.973 . S
C358 C361 1.571 . S
C358 H362 0.970 . S
C358 C363 1.519 . S
H359 C361 0.968 . S
C363 C364 1.544 . S
C363 H365 0.969 . S
C363 H366 0.974 . S
C364 H367 0.969 . S
C364 H368 0.967 . S
C364 C369 1.482 . S
C369 H370 0.970 . S
C369 H371 0.968 . S
H372 C376 0.974 . S
C373 H375 0.973 . S
C373 C376 1.571 . S
C373 H377 0.970 . S
C373 C378 1.519 . S
H374 C376 0.968 . S
C378 C379 1.544 . S
C378 H380 0.969 . S
C378 H381 0.974 . S
C379 H382 0.969 . S
C379 H383 0.967 . S
C379 C384 1.482 . S
C384 H385 0.970 . S
C384 H386 0.968 . S
H387 C391 0.974 . S
C388 H390 0.973 . S
C388 C391 1.571 . S
C388 H392 0.970 . S
C388 C393 1.519 . S
H389 C391 0.968 . S
C393 C394 1.544 . S
C393 H395 0.969 . S
C393 H396 0.974 . S
C394 H397 0.969 . S
C394 H398 0.967 . S
C394 C399 1.482 . S
C399 H400 0.970 . S
C399 H401 0.968 . S
H402 C406 0.974 . S
C403 H405 0.973 . S
C403 C406 1.571 . S
C403 H407 0.970 . S
C403 C408 1.519 . S
H404 C406 0.968 . S
C408 C409 1.544 . S
C408 H410 0.969 . S
C408 H411 0.974 . S
C409 H412 0.969 . S
C409 H413 0.967 . S
C409 C414 1.482 . S
C414 H415 0.970 . S
C414 H416 0.968 . S
H417 C421 0.974 . S
C418 H420 0.973 . S
C418 C421 1.571 . S
C418 H422 0.970 . S
C418 C423 1.519 . S
H419 C421 0.968 . S
C423 C424 1.544 . S
C423 H425 0.969 . S
C423 H426 0.974 . S
C424 H427 0.969 . S
C424 H428 0.967 . S
C424 C429 1.482 . S
C429 H430 0.970 . S
C429 H431 0.968 . S
H432 C436 0.974 . S
C433 H435 0.973 . S
C433 C436 1.571 . S
C433 H437 0.970 . S
C433 C438 1.519 . S
H434 C436 0.968 . S
C438 C439 1.544 . S
C438 H440 0.969 . S
C438 H441 0.974 . S
C439 H442 0.969 . S
C439 H443 0.967 . S
C439 C444 1.482 . S
C444 H445 0.970 . S
C444 H446 0.968 . S
H447 C451 0.974 . S
C448 H450 0.973 . S
C448 C451 1.571 . S
C448 H452 0.970 . S
C448 C453 1.519 1_554 S
H449 C451 0.968 . S
C453 C454 1.544 . S
C453 H455 0.969 . S
C453 H456 0.974 . S
C454 H457 0.969 . S
C454 H458 0.967 . S
C454 C459 1.482 . S
C459 H460 0.970 . S
C459 H461 0.968 . S
H462 C466 0.974 . S
C463 H465 0.973 . S
C463 C466 1.571 . S
C463 H467 0.970 . S
C463 C468 1.519 . S
H464 C466 0.968 . S
C468 C469 1.544 . S
C468 H470 0.969 . S
C468 H471 0.974 . S
C469 H472 0.969 . S
C469 H473 0.967 . S
C469 C474 1.482 . S
C474 H475 0.970 . S
C474 H476 0.968 . S
H477 C481 0.974 . S
C478 H480 0.973 . S
C478 C481 1.571 . S
C478 H482 0.970 . S
C478 C483 1.519 1_556 S
H479 C481 0.968 . S
C483 C484 1.544 . S
C483 H485 0.969 1_554 S
C483 H486 0.974 . S
C484 H487 0.969 . S
C484 H488 0.967 . S
C484 C489 1.482 . S
C489 H490 0.970 . S
C489 H491 0.968 . S
H492 C496 0.974 . S
C493 H495 0.973 . S
C493 C496 1.571 . S
C493 H497 0.970 . S
C493 C498 1.519 . S
H494 C496 0.968 . S
C498 C499 1.544 . S
C498 H500 0.969 . S
C498 H501 0.974 . S
C499 H502 0.969 . S
C499 H503 0.967 . S
C499 C504 1.482 . S
C504 H505 0.970 . S
C504 H506 0.968 . S
H507 C511 0.974 . S
C508 H510 0.973 . S
C508 C511 1.571 1_556 S
C508 H512 0.970 . S
C508 C513 1.519 . S
H509 C511 0.968 . S
C513 C514 1.544 . S
C513 H515 0.969 . S
C513 H516 0.974 . S
C514 H517 0.969 . S
C514 H518 0.967 . S
C514 C519 1.482 . S
C519 H520 0.970 . S
C519 H521 0.968 . S
H522 C526 0.974 . S
C523 H525 0.973 . S
C523 C526 1.571 . S
C523 H527 0.970 . S
C523 C528 1.519 . S
H524 C526 0.968 . S
C528 C529 1.544 . S
C528 H530 0.969 . S
C528 H531 0.974 . S
C529 H532 0.969 . S
C529 H533 0.967 . S
C529 C534 1.482 . S
C534 H535 0.970 . S
C534 H536 0.968 . S
H537 C541 0.974 . S
C538 H540 0.973 . S
C538 C541 1.571 . S
C538 H542 0.970 . S
C538 C543 1.519 . S
H539 C541 0.968 . S
C543 C544 1.544 . S
C543 H545 0.969 . S
C543 H546 0.974 . S
C544 H547 0.969 . S
C544 H548 0.967 . S
C544 C549 1.482 . S
C549 H550 0.970 . S
C549 H551 0.968 . S
H552 C556 0.974 . S
C553 H555 0.973 . S
C553 C556 1.571 . S
C553 H557 0.970 . S
C553 C558 1.519 . S
H554 C556 0.968 . S
C558 C559 1.544 . S
C558 H560 0.969 . S
C558 H561 0.974 . S
C559 H562 0.969 . S
C559 H563 0.967 . S
C559 C564 1.482 . S
C564 H565 0.970 . S
C564 H566 0.968 . S
H567 C571 0.974 . S
C568 H570 0.973 1_556 S
C568 C571 1.571 1_556 S
C568 H572 0.970 . S
C568 C573 1.519 . S
H569 C571 0.968 1_556 S
C573 C574 1.544 . S
C573 H575 0.969 . S
C573 H576 0.974 . S
C574 H577 0.969 . S
C574 H578 0.967 . S
C574 C579 1.482 . S
C579 H580 0.970 . S
C579 H581 0.968 . S
H582 C586 0.974 . S
C583 H585 0.973 . S
C583 C586 1.571 . S
C583 H587 0.970 . S
C583 C588 1.519 . S
H584 C586 0.968 . S
C588 C589 1.544 . S
C588 H590 0.969 . S
C588 H591 0.974 . S
C589 H592 0.969 . S
C589 H593 0.967 . S
C589 C594 1.482 . S
C594 H595 0.970 . S
C594 H596 0.968 . S
H597 C601 0.974 . S
C598 H600 0.973 . S
C598 C601 1.571 . S
C598 H602 0.970 . S
C598 C603 1.519 . S
H599 C601 0.968 . S
C603 C604 1.544 . S
C603 H605 0.969 . S
C603 H606 0.974 . S
C604 H607 0.969 . S
C604 H608 0.967 . S
C604 C609 1.482 . S
C609 H610 0.970 . S
C609 H611 0.968 . S
C196 C148 0.962 . S
C204 C4 0.859 . S
C211 C28 0.962 . S
C219 C100 0.845 . S
C226 C52 1.021 . S
C234 C76 1.032 . S
C241 C124 1.022 . S
C249 C172 1.030 . S
C256 C7 0.578 . S
C264 C45 0.748 . S
C271 C31 0.408 . S
C279 C189 0.672 . S
C286 C175 0.571 . S
C294 C69 0.685 . S
C301 C79 0.476 . S
C309 C165 0.862 . S
C316 C151 0.433 . S
C324 C117 0.810 . S
C331 C103 0.407 . S
C339 C141 0.713 . S
C346 C93 0.491 . S
C354 C127 0.745 . S
C361 C55 0.438 . S
C369 C21 0.816 . S
C376 C22 0.941 . S
C384 C16 1.212 . S
C391 C40 0.931 . S
C399 C46 1.157 . S
C406 C64 0.951 . S
C414 C70 0.691 . S
C421 C94 0.996 . S
C429 C88 1.150 . S
C436 C118 0.856 . S
C444 C112 0.599 . S
C451 C142 0.942 . S
C459 C136 1.216 . S
C466 C166 0.866 . S
C474 C160 0.509 . S
C481 C184 0.884 . S
C489 C190 0.511 . S
C496 C36 2.364 . S
C504 C5 2.145 . S
C511 C29 2.279 . S
C519 C180 2.101 . S
C526 C173 2.243 . S
C534 C60 2.001 1_554 S
C541 C77 2.220 . S
C549 C156 2.130 . S
C556 C149 2.280 . S
C564 C108 2.069 . S
C571 C101 2.221 . S
C579 C132 2.164 . S
C586 C84 2.355 1_554 S
C594 C125 1.823 . S
C601 C12 2.370 . S
C609 C53 2.054 . S
