# Generated by pormake.
# Topology yfj, (5)-cn, num edge types: 1
# Building blocks:
#     Node 0, Type 0, BuildingBlock: N671, # of connection points: 5
#     Node 1, Type 0, BuildingBlock: N671, # of connection points: 5
#     Node 2, Type 0, BuildingBlock: N671, # of connection points: 5
#     Node 3, Type 0, BuildingBlock: N671, # of connection points: 5
#     Node 4, Type 0, BuildingBlock: N671, # of connection points: 5
#     Node 5, Type 0, BuildingBlock: N671, # of connection points: 5
#     Node 6, Type 0, BuildingBlock: N671, # of connection points: 5
#     Node 7, Type 0, BuildingBlock: N671, # of connection points: 5
#     Node 8, Type 0, BuildingBlock: N671, # of connection points: 5
#     Node 9, Type 0, BuildingBlock: N671, # of connection points: 5
#     Node 10, Type 0, BuildingBlock: N671, # of connection points: 5
#     Node 11, Type 0, BuildingBlock: N671, # of connection points: 5
#     Node 12, Type 0, BuildingBlock: N671, # of connection points: 5
#     Node 13, Type 0, BuildingBlock: N671, # of connection points: 5
#     Node 14, Type 0, BuildingBlock: N671, # of connection points: 5
#     Node 15, Type 0, BuildingBlock: N671, # of connection points: 5
#     Edge 16, Type (0, 0), BuildingBlock: E195, # of connection points: 2
#     Edge 17, Type (0, 0), BuildingBlock: E195, # of connection points: 2
#     Edge 18, Type (0, 0), BuildingBlock: E195, # of connection points: 2
#     Edge 19, Type (0, 0), BuildingBlock: E195, # of connection points: 2
#     Edge 20, Type (0, 0), BuildingBlock: E195, # of connection points: 2
#     Edge 21, Type (0, 0), BuildingBlock: E195, # of connection points: 2
#     Edge 22, Type (0, 0), BuildingBlock: E195, # of connection points: 2
#     Edge 23, Type (0, 0), BuildingBlock: E195, # of connection points: 2
#     Edge 24, Type (0, 0), BuildingBlock: E195, # of connection points: 2
#     Edge 25, Type (0, 0), BuildingBlock: E195, # of connection points: 2
#     Edge 26, Type (0, 0), BuildingBlock: E195, # of connection points: 2
#     Edge 27, Type (0, 0), BuildingBlock: E195, # of connection points: 2
#     Edge 28, Type (0, 0), BuildingBlock: E195, # of connection points: 2
#     Edge 29, Type (0, 0), BuildingBlock: E195, # of connection points: 2
#     Edge 30, Type (0, 0), BuildingBlock: E195, # of connection points: 2
#     Edge 31, Type (0, 0), BuildingBlock: E195, # of connection points: 2
#     Edge 32, Type (0, 0), BuildingBlock: E195, # of connection points: 2
#     Edge 33, Type (0, 0), BuildingBlock: E195, # of connection points: 2
#     Edge 34, Type (0, 0), BuildingBlock: E195, # of connection points: 2
#     Edge 35, Type (0, 0), BuildingBlock: E195, # of connection points: 2
#     Edge 36, Type (0, 0), BuildingBlock: E195, # of connection points: 2
#     Edge 37, Type (0, 0), BuildingBlock: E195, # of connection points: 2
#     Edge 38, Type (0, 0), BuildingBlock: E195, # of connection points: 2
#     Edge 39, Type (0, 0), BuildingBlock: E195, # of connection points: 2
#     Edge 40, Type (0, 0), BuildingBlock: E195, # of connection points: 2
#     Edge 41, Type (0, 0), BuildingBlock: E195, # of connection points: 2
#     Edge 42, Type (0, 0), BuildingBlock: E195, # of connection points: 2
#     Edge 43, Type (0, 0), BuildingBlock: E195, # of connection points: 2
#     Edge 44, Type (0, 0), BuildingBlock: E195, # of connection points: 2
#     Edge 45, Type (0, 0), BuildingBlock: E195, # of connection points: 2
#     Edge 46, Type (0, 0), BuildingBlock: E195, # of connection points: 2
#     Edge 47, Type (0, 0), BuildingBlock: E195, # of connection points: 2
#     Edge 48, Type (0, 0), BuildingBlock: E195, # of connection points: 2
#     Edge 49, Type (0, 0), BuildingBlock: E195, # of connection points: 2
#     Edge 50, Type (0, 0), BuildingBlock: E195, # of connection points: 2
#     Edge 51, Type (0, 0), BuildingBlock: E195, # of connection points: 2
#     Edge 52, Type (0, 0), BuildingBlock: E195, # of connection points: 2
#     Edge 53, Type (0, 0), BuildingBlock: E195, # of connection points: 2
#     Edge 54, Type (0, 0), BuildingBlock: E195, # of connection points: 2
#     Edge 55, Type (0, 0), BuildingBlock: E195, # of connection points: 2
# Relax obj value: 0.471
# Max RMSD: 0.240
# Mean RMSD: 0.240
data_yfj+N671+E195
_symmetry_space_group_name_H-M    P1
_symmetry_Int_Tables_number       1
_symmetry_cell_setting            triclinic
loop_
_symmetry_equiv_pos_as_xyz
'x, y, z'
_cell_length_a     40.566
_cell_length_b     40.566
_cell_length_c     30.972
_cell_angle_alpha  90.000
_cell_angle_beta   90.000
_cell_angle_gamma  90.001
loop_
_atom_site_label
_atom_site_type_symbol
_atom_site_fract_x
_atom_site_fract_y
_atom_site_fract_z
_atom_type_partial_charge
Zn0 Zn 0.85458 0.85000 0.29397 0.00000
Zn1 Zn 0.93207 0.86708 0.32010 0.00000
Zn2 Zn 0.87529 0.92619 0.32294 0.00000
C3 C 0.90043 0.89699 0.40099 0.00000
O4 O 0.82342 0.91512 0.32129 0.00000
O5 O 0.81984 0.86195 0.33662 0.00000
O6 O 0.83195 0.85126 0.23780 0.00000
O7 O 0.87907 0.84275 0.21473 0.00000
C8 C 0.94810 0.93726 0.30590 0.00000
C9 C 0.89094 0.80074 0.32947 0.00000
C10 C 0.80773 0.89010 0.33472 0.00000
O11 O 0.90844 0.82354 0.34614 0.00000
O12 O 0.86602 0.80464 0.30506 0.00000
O13 O 0.88791 0.88390 0.29280 0.00000
O14 O 0.87897 0.91650 0.38480 0.00000
O15 O 0.92299 0.88204 0.37998 0.00000
O16 O 0.95714 0.90738 0.30223 0.00000
O17 O 0.92062 0.94784 0.31062 0.00000
H18 H 0.88611 0.85181 0.23732 0.00000
C19 C 0.85070 0.85485 0.20500 0.00000
Zn20 Zn 0.14999 0.35457 0.54399 0.00000
Zn21 Zn 0.13291 0.43206 0.57011 0.00000
Zn22 Zn 0.07381 0.37528 0.57296 0.00000
C23 C 0.10300 0.40042 0.65101 0.00000
O24 O 0.08487 0.32340 0.57131 0.00000
O25 O 0.13804 0.31983 0.58664 0.00000
O26 O 0.14873 0.33194 0.48782 0.00000
O27 O 0.15724 0.37906 0.46474 0.00000
C28 C 0.06273 0.44808 0.55592 0.00000
C29 C 0.19925 0.39093 0.57948 0.00000
C30 C 0.10989 0.30772 0.58473 0.00000
O31 O 0.17645 0.40843 0.59615 0.00000
O32 O 0.19535 0.36601 0.55507 0.00000
O33 O 0.11609 0.38790 0.54282 0.00000
O34 O 0.08349 0.37896 0.63482 0.00000
O35 O 0.11795 0.42298 0.63000 0.00000
O36 O 0.09261 0.45713 0.55225 0.00000
O37 O 0.05215 0.42061 0.56063 0.00000
H38 H 0.14818 0.38610 0.48734 0.00000
C39 C 0.14514 0.35069 0.45502 0.00000
Zn40 Zn 0.64543 0.85001 0.45601 0.00000
Zn41 Zn 0.56794 0.86709 0.42989 0.00000
Zn42 Zn 0.62472 0.92620 0.42704 0.00000
C43 C 0.59957 0.89700 0.34899 0.00000
O44 O 0.67659 0.91513 0.42869 0.00000
O45 O 0.68017 0.86196 0.41336 0.00000
O46 O 0.66806 0.85127 0.51218 0.00000
O47 O 0.62094 0.84276 0.53526 0.00000
C48 C 0.55191 0.93727 0.44408 0.00000
C49 C 0.60907 0.80075 0.42052 0.00000
C50 C 0.69228 0.89011 0.41527 0.00000
O51 O 0.59157 0.82355 0.40385 0.00000
O52 O 0.63399 0.80465 0.44493 0.00000
O53 O 0.61209 0.88391 0.45719 0.00000
O54 O 0.62104 0.91651 0.36518 0.00000
O55 O 0.57702 0.88205 0.37000 0.00000
O56 O 0.54287 0.90739 0.44775 0.00000
O57 O 0.57939 0.94785 0.43937 0.00000
H58 H 0.61390 0.85182 0.51266 0.00000
C59 C 0.64930 0.85486 0.54499 0.00000
Zn60 Zn 0.65001 0.85457 0.04396 0.00000
Zn61 Zn 0.63293 0.93206 0.07008 0.00000
Zn62 Zn 0.57382 0.87528 0.07293 0.00000
C63 C 0.60301 0.90043 0.15098 0.00000
O64 O 0.58488 0.82341 0.07129 0.00000
O65 O 0.63805 0.81984 0.08661 0.00000
O66 O 0.64874 0.83194 0.98780 0.00000
O67 O 0.65725 0.87906 0.96472 0.00000
C68 C 0.56275 0.94809 0.05589 0.00000
C69 C 0.69927 0.89093 0.07946 0.00000
C70 C 0.60990 0.80773 0.08471 0.00000
O71 O 0.67646 0.90844 0.09613 0.00000
O72 O 0.69537 0.86602 0.05505 0.00000
O73 O 0.61610 0.88791 0.04279 0.00000
O74 O 0.58351 0.87897 0.13479 0.00000
O75 O 0.61796 0.92299 0.12997 0.00000
O76 O 0.59263 0.95713 0.05222 0.00000
O77 O 0.55216 0.92062 0.06060 0.00000
H78 H 0.64819 0.88610 0.98731 0.00000
C79 C 0.64515 0.85070 0.95499 0.00000
Zn80 Zn 0.14542 0.35000 0.95604 0.00000
Zn81 Zn 0.06793 0.36707 0.92992 0.00000
Zn82 Zn 0.12471 0.42618 0.92707 0.00000
C83 C 0.09956 0.39699 0.84902 0.00000
O84 O 0.17658 0.41512 0.92872 0.00000
O85 O 0.18016 0.36195 0.91339 0.00000
O86 O 0.16805 0.35126 0.01220 0.00000
O87 O 0.12093 0.34275 0.03528 0.00000
C88 C 0.05190 0.43726 0.94411 0.00000
C89 C 0.10906 0.30074 0.92054 0.00000
C90 C 0.19227 0.39010 0.91529 0.00000
O91 O 0.09156 0.32354 0.90387 0.00000
O92 O 0.13398 0.30464 0.94495 0.00000
O93 O 0.11209 0.38390 0.95721 0.00000
O94 O 0.12103 0.41650 0.86521 0.00000
O95 O 0.07701 0.38204 0.87003 0.00000
O96 O 0.04286 0.40737 0.94778 0.00000
O97 O 0.07938 0.44784 0.93940 0.00000
H98 H 0.11389 0.35181 0.01269 0.00000
C99 C 0.14930 0.35485 0.04501 0.00000
Zn100 Zn 0.85001 0.64543 0.54399 0.00000
Zn101 Zn 0.86709 0.56794 0.57011 0.00000
Zn102 Zn 0.92619 0.62472 0.57296 0.00000
C103 C 0.89700 0.59958 0.65101 0.00000
O104 O 0.91513 0.67660 0.57131 0.00000
O105 O 0.86196 0.68017 0.58664 0.00000
O106 O 0.85127 0.66806 0.48782 0.00000
O107 O 0.84276 0.62094 0.46474 0.00000
C108 C 0.93727 0.55192 0.55592 0.00000
C109 C 0.80075 0.60907 0.57948 0.00000
C110 C 0.89011 0.69228 0.58473 0.00000
O111 O 0.82355 0.59157 0.59615 0.00000
O112 O 0.80465 0.63399 0.55507 0.00000
O113 O 0.88391 0.61210 0.54282 0.00000
O114 O 0.91651 0.62104 0.63482 0.00000
O115 O 0.88205 0.57702 0.63000 0.00000
O116 O 0.90739 0.54287 0.55225 0.00000
O117 O 0.94785 0.57939 0.56063 0.00000
H118 H 0.85182 0.61390 0.48734 0.00000
C119 C 0.85486 0.64931 0.45502 0.00000
Zn120 Zn 0.35457 0.35001 0.79398 0.00000
Zn121 Zn 0.43206 0.36709 0.82010 0.00000
Zn122 Zn 0.37528 0.42620 0.82295 0.00000
C123 C 0.40043 0.39700 0.90100 0.00000
O124 O 0.32341 0.41513 0.82130 0.00000
O125 O 0.31983 0.36196 0.83663 0.00000
O126 O 0.33194 0.35127 0.73782 0.00000
O127 O 0.37906 0.34276 0.71473 0.00000
C128 C 0.44809 0.43727 0.80591 0.00000
C129 C 0.39093 0.30075 0.82947 0.00000
C130 C 0.30772 0.39011 0.83473 0.00000
O131 O 0.40843 0.32355 0.84614 0.00000
O132 O 0.36601 0.30465 0.80506 0.00000
O133 O 0.38791 0.38391 0.79281 0.00000
O134 O 0.37897 0.41651 0.88481 0.00000
O135 O 0.42298 0.38205 0.87999 0.00000
O136 O 0.45713 0.40739 0.80224 0.00000
O137 O 0.42062 0.44785 0.81062 0.00000
H138 H 0.38610 0.35182 0.73733 0.00000
C139 C 0.35069 0.35486 0.70501 0.00000
Zn140 Zn 0.14542 0.15000 0.29397 0.00000
Zn141 Zn 0.06793 0.13292 0.32010 0.00000
Zn142 Zn 0.12471 0.07381 0.32294 0.00000
C143 C 0.09957 0.10301 0.40099 0.00000
O144 O 0.17658 0.08488 0.32129 0.00000
O145 O 0.18016 0.13805 0.33662 0.00000
O146 O 0.16805 0.14874 0.23780 0.00000
O147 O 0.12093 0.15725 0.21473 0.00000
C148 C 0.05190 0.06274 0.30590 0.00000
C149 C 0.10906 0.19926 0.32947 0.00000
C150 C 0.19227 0.10990 0.33472 0.00000
O151 O 0.09156 0.17646 0.34614 0.00000
O152 O 0.13398 0.19536 0.30506 0.00000
O153 O 0.11209 0.11610 0.29280 0.00000
O154 O 0.12103 0.08350 0.38480 0.00000
O155 O 0.07701 0.11796 0.37998 0.00000
O156 O 0.04286 0.09262 0.30223 0.00000
O157 O 0.07938 0.05216 0.31062 0.00000
H158 H 0.11389 0.14819 0.23732 0.00000
C159 C 0.14930 0.14515 0.20500 0.00000
Zn160 Zn 0.65000 0.64543 0.20602 0.00000
Zn161 Zn 0.63292 0.56794 0.17990 0.00000
Zn162 Zn 0.57381 0.62472 0.17705 0.00000
C163 C 0.60300 0.59957 0.09900 0.00000
O164 O 0.58488 0.67659 0.17869 0.00000
O165 O 0.63804 0.68017 0.16337 0.00000
O166 O 0.64873 0.66807 0.26218 0.00000
O167 O 0.65724 0.62094 0.28527 0.00000
C168 C 0.56273 0.55191 0.19409 0.00000
C169 C 0.69926 0.60907 0.17053 0.00000
C170 C 0.60989 0.69228 0.16527 0.00000
O171 O 0.67645 0.59157 0.15386 0.00000
O172 O 0.69536 0.63399 0.19494 0.00000
O173 O 0.61609 0.61210 0.20719 0.00000
O174 O 0.58350 0.62104 0.11519 0.00000
O175 O 0.61795 0.57702 0.12001 0.00000
O176 O 0.59262 0.54287 0.19776 0.00000
O177 O 0.55215 0.57939 0.18937 0.00000
H178 H 0.64818 0.61391 0.26267 0.00000
C179 C 0.64514 0.64931 0.29499 0.00000
Zn180 Zn 0.35457 0.14999 0.45601 0.00000
Zn181 Zn 0.43206 0.13291 0.42989 0.00000
Zn182 Zn 0.37528 0.07380 0.42704 0.00000
C183 C 0.40043 0.10300 0.34899 0.00000
O184 O 0.32341 0.08487 0.42869 0.00000
O185 O 0.31983 0.13804 0.41336 0.00000
O186 O 0.33194 0.14873 0.51218 0.00000
O187 O 0.37906 0.15724 0.53526 0.00000
C188 C 0.44809 0.06273 0.44408 0.00000
C189 C 0.39093 0.19925 0.42052 0.00000
C190 C 0.30772 0.10989 0.41527 0.00000
O191 O 0.40843 0.17645 0.40385 0.00000
O192 O 0.36601 0.19535 0.44493 0.00000
O193 O 0.38791 0.11609 0.45719 0.00000
O194 O 0.37896 0.08349 0.36518 0.00000
O195 O 0.42298 0.11795 0.37000 0.00000
O196 O 0.45713 0.09261 0.44775 0.00000
O197 O 0.42061 0.05215 0.43937 0.00000
H198 H 0.38610 0.14818 0.51266 0.00000
C199 C 0.35070 0.14514 0.54499 0.00000
Zn200 Zn 0.84999 0.85457 0.70603 0.00000
Zn201 Zn 0.86708 0.93206 0.67990 0.00000
Zn202 Zn 0.92618 0.87528 0.67706 0.00000
C203 C 0.89699 0.90043 0.59901 0.00000
O204 O 0.91512 0.82341 0.67871 0.00000
O205 O 0.86195 0.81983 0.66338 0.00000
O206 O 0.85126 0.83194 0.76220 0.00000
O207 O 0.84275 0.87907 0.78527 0.00000
C208 C 0.93726 0.94809 0.69410 0.00000
C209 C 0.80074 0.89093 0.67053 0.00000
C210 C 0.89010 0.80772 0.66528 0.00000
O211 O 0.82354 0.90843 0.65386 0.00000
O212 O 0.80464 0.86601 0.69494 0.00000
O213 O 0.88390 0.88791 0.70720 0.00000
O214 O 0.91650 0.87897 0.61520 0.00000
O215 O 0.88204 0.92298 0.62002 0.00000
O216 O 0.90738 0.95713 0.69777 0.00000
O217 O 0.94784 0.92062 0.68938 0.00000
H218 H 0.85181 0.88610 0.76268 0.00000
C219 C 0.85485 0.85070 0.79500 0.00000
Zn220 Zn 0.64543 0.64999 0.79398 0.00000
Zn221 Zn 0.56794 0.63291 0.82010 0.00000
Zn222 Zn 0.62472 0.57380 0.82295 0.00000
C223 C 0.59957 0.60300 0.90100 0.00000
O224 O 0.67659 0.58487 0.82130 0.00000
O225 O 0.68017 0.63804 0.83663 0.00000
O226 O 0.66806 0.64873 0.73782 0.00000
O227 O 0.62094 0.65724 0.71473 0.00000
C228 C 0.55191 0.56273 0.80591 0.00000
C229 C 0.60907 0.69925 0.82947 0.00000
C230 C 0.69228 0.60989 0.83473 0.00000
O231 O 0.59157 0.67645 0.84614 0.00000
O232 O 0.63399 0.69535 0.80506 0.00000
O233 O 0.61209 0.61609 0.79281 0.00000
O234 O 0.62103 0.58349 0.88481 0.00000
O235 O 0.57702 0.61795 0.87999 0.00000
O236 O 0.54287 0.59261 0.80224 0.00000
O237 O 0.57938 0.55215 0.81062 0.00000
H238 H 0.61390 0.64818 0.73733 0.00000
C239 C 0.64931 0.64514 0.70501 0.00000
Zn240 Zn 0.34999 0.14543 0.04396 0.00000
Zn241 Zn 0.36707 0.06794 0.07008 0.00000
Zn242 Zn 0.42618 0.12472 0.07293 0.00000
C243 C 0.39699 0.09957 0.15098 0.00000
O244 O 0.41512 0.17659 0.07128 0.00000
O245 O 0.36195 0.18016 0.08661 0.00000
O246 O 0.35126 0.16806 0.98780 0.00000
O247 O 0.34275 0.12094 0.96472 0.00000
C248 C 0.43725 0.05191 0.05589 0.00000
C249 C 0.30073 0.10907 0.07946 0.00000
C250 C 0.39010 0.19227 0.08471 0.00000
O251 O 0.32354 0.09156 0.09613 0.00000
O252 O 0.30463 0.13398 0.05505 0.00000
O253 O 0.38390 0.11209 0.04279 0.00000
O254 O 0.41649 0.12103 0.13479 0.00000
O255 O 0.38204 0.07701 0.12997 0.00000
O256 O 0.40737 0.04287 0.05222 0.00000
O257 O 0.44784 0.07938 0.06060 0.00000
H258 H 0.35181 0.11390 0.98731 0.00000
C259 C 0.35485 0.14930 0.95499 0.00000
Zn260 Zn 0.15001 0.14543 0.70603 0.00000
Zn261 Zn 0.13292 0.06794 0.67990 0.00000
Zn262 Zn 0.07382 0.12472 0.67706 0.00000
C263 C 0.10301 0.09957 0.59901 0.00000
O264 O 0.08488 0.17659 0.67871 0.00000
O265 O 0.13805 0.18017 0.66338 0.00000
O266 O 0.14874 0.16806 0.76220 0.00000
O267 O 0.15725 0.12093 0.78527 0.00000
C268 C 0.06274 0.05191 0.69410 0.00000
C269 C 0.19926 0.10907 0.67053 0.00000
C270 C 0.10990 0.19228 0.66528 0.00000
O271 O 0.17646 0.09157 0.65386 0.00000
O272 O 0.19536 0.13399 0.69494 0.00000
O273 O 0.11610 0.11209 0.70720 0.00000
O274 O 0.08350 0.12103 0.61520 0.00000
O275 O 0.11796 0.07702 0.62002 0.00000
O276 O 0.09262 0.04287 0.69777 0.00000
O277 O 0.05216 0.07938 0.68938 0.00000
H278 H 0.14819 0.11390 0.76268 0.00000
C279 C 0.14515 0.14930 0.79500 0.00000
Zn280 Zn 0.85458 0.65000 0.95604 0.00000
Zn281 Zn 0.93207 0.63293 0.92992 0.00000
Zn282 Zn 0.87529 0.57381 0.92707 0.00000
C283 C 0.90044 0.60301 0.84902 0.00000
O284 O 0.82342 0.58488 0.92872 0.00000
O285 O 0.81984 0.63805 0.91339 0.00000
O286 O 0.83195 0.64874 0.01220 0.00000
O287 O 0.87907 0.65725 0.03528 0.00000
C288 C 0.94810 0.56274 0.94411 0.00000
C289 C 0.89094 0.69926 0.92054 0.00000
C290 C 0.80773 0.60990 0.91529 0.00000
O291 O 0.90844 0.67646 0.90387 0.00000
O292 O 0.86602 0.69536 0.94495 0.00000
O293 O 0.88791 0.61610 0.95721 0.00000
O294 O 0.87897 0.58350 0.86521 0.00000
O295 O 0.92299 0.61796 0.87003 0.00000
O296 O 0.95714 0.59263 0.94778 0.00000
O297 O 0.92062 0.55216 0.93940 0.00000
H298 H 0.88611 0.64819 0.01269 0.00000
C299 C 0.85070 0.64515 0.04501 0.00000
Zn300 Zn 0.35000 0.35457 0.20602 0.00000
Zn301 Zn 0.36708 0.43206 0.17990 0.00000
Zn302 Zn 0.42619 0.37528 0.17705 0.00000
C303 C 0.39700 0.40043 0.09900 0.00000
O304 O 0.41512 0.32341 0.17869 0.00000
O305 O 0.36196 0.31983 0.16337 0.00000
O306 O 0.35127 0.33193 0.26218 0.00000
O307 O 0.34276 0.37906 0.28527 0.00000
C308 C 0.43727 0.44809 0.19409 0.00000
C309 C 0.30074 0.39093 0.17053 0.00000
C310 C 0.39011 0.30772 0.16527 0.00000
O311 O 0.32355 0.40843 0.15386 0.00000
O312 O 0.30464 0.36601 0.19494 0.00000
O313 O 0.38391 0.38790 0.20719 0.00000
O314 O 0.41650 0.37896 0.11519 0.00000
O315 O 0.38205 0.42298 0.12001 0.00000
O316 O 0.40738 0.45713 0.19776 0.00000
O317 O 0.44785 0.42061 0.18937 0.00000
H318 H 0.35182 0.38609 0.26267 0.00000
C319 C 0.35486 0.35069 0.29499 0.00000
C320 C 0.88993 0.90239 0.56273 0.00000
H321 H 0.85834 0.86391 0.55472 0.00000
C322 C 0.87129 0.87950 0.49485 0.00000
H323 H 0.85812 0.86395 0.47972 0.00000
C324 C 0.87130 0.87967 0.53960 0.00000
C325 C 0.89049 0.90207 0.47175 0.00000
C326 C 0.90905 0.92466 0.53982 0.00000
H327 H 0.92286 0.93978 0.55478 0.00000
C328 C 0.90800 0.92487 0.49468 0.00000
C329 C 0.89027 0.90256 0.42366 0.00000
H330 H 0.91983 0.94137 0.47946 0.00000
H331 H 0.89639 0.92495 0.41391 0.00000
H332 H 0.86750 0.89823 0.41364 0.00000
C333 C 0.10641 0.39779 0.68636 0.00000
H334 H 0.07065 0.43235 0.69500 0.00000
C335 C 0.07746 0.40984 0.75280 0.00000
H336 H 0.06114 0.42218 0.76775 0.00000
C337 C 0.08304 0.41571 0.70933 0.00000
C338 C 0.09565 0.38588 0.77487 0.00000
C339 C 0.12450 0.37413 0.70828 0.00000
H340 H 0.14139 0.36224 0.69374 0.00000
C341 C 0.11790 0.36777 0.75182 0.00000
C342 C 0.08951 0.37889 0.82141 0.00000
H343 H 0.12923 0.35032 0.76582 0.00000
H344 H 0.09649 0.35601 0.82753 0.00000
H345 H 0.06548 0.38025 0.82678 0.00000
C346 C 0.60574 0.89849 0.18633 0.00000
H347 H 0.58313 0.94245 0.19751 0.00000
C348 C 0.58337 0.91754 0.25431 0.00000
H349 H 0.57214 0.93408 0.27030 0.00000
C350 C 0.58978 0.92238 0.21081 0.00000
C351 C 0.59329 0.88848 0.27487 0.00000
C352 C 0.61567 0.86976 0.20676 0.00000
H353 H 0.62758 0.85345 0.19116 0.00000
C354 C 0.60814 0.86478 0.25035 0.00000
C355 C 0.58606 0.88270 0.32142 0.00000
H356 H 0.61351 0.84429 0.26333 0.00000
H357 H 0.58542 0.85864 0.32654 0.00000
H358 H 0.56384 0.89154 0.32784 0.00000
C359 C 0.90249 0.60631 0.81316 0.00000
H360 H 0.92627 0.64870 0.79691 0.00000
C361 C 0.91720 0.62410 0.74113 0.00000
H362 H 0.92734 0.63992 0.72281 0.00000
C363 C 0.91671 0.62918 0.78539 0.00000
C364 C 0.90291 0.59586 0.72321 0.00000
C365 C 0.88823 0.57839 0.79537 0.00000
H366 H 0.87738 0.56285 0.81344 0.00000
C367 C 0.88980 0.57310 0.75078 0.00000
C368 C 0.90377 0.58980 0.67578 0.00000
H369 H 0.88151 0.55307 0.73929 0.00000
H370 H 0.90213 0.56578 0.67077 0.00000
H371 H 0.92541 0.59717 0.66458 0.00000
C372 C 0.40197 0.39421 0.93674 0.00000
H373 H 0.43562 0.35922 0.95326 0.00000
C374 C 0.42159 0.38185 0.00871 0.00000
H375 H 0.43555 0.36933 0.02709 0.00000
C376 C 0.42174 0.37601 0.96461 0.00000
C377 C 0.40109 0.40606 0.02638 0.00000
C378 C 0.38156 0.41811 0.95429 0.00000
H379 H 0.36699 0.43021 0.93618 0.00000
C380 C 0.38242 0.42443 0.99868 0.00000
C381 C 0.40110 0.41300 0.07361 0.00000
H382 H 0.36964 0.44203 0.00994 0.00000
H383 H 0.39371 0.43598 0.07810 0.00000
H384 H 0.42404 0.41135 0.08432 0.00000
C385 C 0.10679 0.10244 0.56364 0.00000
H386 H 0.06626 0.07344 0.55617 0.00000
C387 C 0.07570 0.09418 0.49786 0.00000
H388 H 0.05759 0.08424 0.48339 0.00000
C389 C 0.08081 0.08794 0.54136 0.00000
C390 C 0.09697 0.11501 0.47510 0.00000
C391 C 0.12793 0.12298 0.54102 0.00000
H392 H 0.14653 0.13239 0.55509 0.00000
C393 C 0.12188 0.12986 0.49748 0.00000
C394 C 0.09145 0.12240 0.42854 0.00000
H395 H 0.13550 0.14533 0.48300 0.00000
H396 H 0.10164 0.14396 0.42190 0.00000
H397 H 0.06743 0.12455 0.42356 0.00000
C398 C 0.61056 0.59816 0.06273 0.00000
H399 H 0.63177 0.64338 0.05666 0.00000
C400 C 0.62392 0.62617 0.99603 0.00000
H401 H 0.63306 0.64477 0.98170 0.00000
C402 C 0.62332 0.62519 0.04076 0.00000
C403 C 0.61123 0.60000 0.97179 0.00000
C404 C 0.59787 0.57228 0.03870 0.00000
H405 H 0.58802 0.55395 0.05284 0.00000
C406 C 0.59958 0.57316 0.99360 0.00000
C407 C 0.61225 0.60045 0.92371 0.00000
H408 H 0.59242 0.55454 0.97762 0.00000
H409 H 0.61200 0.57743 0.91323 0.00000
H410 H 0.63339 0.61045 0.91452 0.00000
C411 C 0.39815 0.11030 0.31317 0.00000
H412 H 0.36708 0.07092 0.31234 0.00000
C413 C 0.37146 0.08677 0.25048 0.00000
H414 H 0.35693 0.07082 0.23852 0.00000
C415 C 0.37740 0.08702 0.29455 0.00000
C416 C 0.38666 0.10982 0.22344 0.00000
C417 C 0.41330 0.13307 0.28634 0.00000
H418 H 0.42844 0.14860 0.29798 0.00000
C419 C 0.40629 0.13316 0.24211 0.00000
C420 C 0.38006 0.11022 0.17613 0.00000
H421 H 0.41544 0.14996 0.22450 0.00000
H422 H 0.38415 0.13276 0.16521 0.00000
H423 H 0.35643 0.10522 0.17142 0.00000
C424 C 0.81476 0.86202 0.17156 0.00000
H425 H 0.83306 0.85016 0.11240 0.00000
C426 C 0.78495 0.86217 0.10392 0.00000
H427 H 0.78471 0.85834 0.07365 0.00000
C428 C 0.81370 0.85710 0.12716 0.00000
C429 C 0.75624 0.87284 0.12466 0.00000
C430 C 0.78634 0.87272 0.19208 0.00000
H431 H 0.78662 0.87731 0.22219 0.00000
C432 C 0.75724 0.87674 0.16842 0.00000
C433 C 0.72500 0.87783 0.10021 0.00000
H434 H 0.73755 0.88236 0.18323 0.00000
H435 H 0.70631 0.87529 0.12044 0.00000
H436 H 0.72313 0.86020 0.07823 0.00000
C437 C 0.10934 0.23678 0.35522 0.00000
H438 H 0.06925 0.26504 0.34144 0.00000
C439 C 0.09559 0.28951 0.38697 0.00000
H440 H 0.08089 0.30768 0.38913 0.00000
C441 C 0.08860 0.26394 0.35874 0.00000
C442 C 0.12410 0.28879 0.41234 0.00000
C443 C 0.13765 0.23614 0.38026 0.00000
H444 H 0.15283 0.21840 0.37751 0.00000
C445 C 0.14387 0.26163 0.40958 0.00000
C446 C 0.13164 0.31582 0.44338 0.00000
H447 H 0.16240 0.26002 0.42814 0.00000
H448 H 0.14587 0.30685 0.46649 0.00000
H449 H 0.11075 0.32306 0.45694 0.00000
C450 C 0.68320 0.86265 0.58199 0.00000
H451 H 0.66399 0.90384 0.60979 0.00000
C452 C 0.70850 0.89587 0.63777 0.00000
H453 H 0.70737 0.91419 0.65684 0.00000
C454 C 0.68255 0.88951 0.60986 0.00000
C455 C 0.73632 0.87551 0.63814 0.00000
C456 C 0.71084 0.84256 0.58226 0.00000
H457 H 0.71243 0.82463 0.56258 0.00000
C458 C 0.73638 0.84868 0.61153 0.00000
C459 C 0.76413 0.88170 0.66850 0.00000
H460 H 0.75433 0.83372 0.61297 0.00000
H461 H 0.77579 0.86064 0.67355 0.00000
H462 H 0.75490 0.88903 0.69649 0.00000
C463 C 0.63336 0.81764 0.91884 0.00000
H464 H 0.60351 0.79603 0.96341 0.00000
C465 C 0.59915 0.76947 0.90822 0.00000
H466 H 0.58358 0.75418 0.91938 0.00000
C467 C 0.61093 0.79459 0.93434 0.00000
C468 C 0.60998 0.76644 0.86552 0.00000
C469 C 0.64417 0.81456 0.87658 0.00000
H470 H 0.66031 0.82932 0.86553 0.00000
C471 C 0.63131 0.78970 0.85019 0.00000
C472 C 0.59709 0.73992 0.83685 0.00000
H473 H 0.63759 0.78895 0.82070 0.00000
H474 H 0.59918 0.74734 0.80655 0.00000
H475 H 0.57332 0.73692 0.84295 0.00000
C476 C 0.18503 0.36613 0.07628 0.00000
H477 H 0.21114 0.32376 0.06809 0.00000
C478 C 0.24111 0.35596 0.09926 0.00000
H479 H 0.25954 0.34153 0.10075 0.00000
C480 C 0.21227 0.34549 0.07955 0.00000
C481 C 0.24333 0.38760 0.11696 0.00000
C482 C 0.18720 0.39744 0.09397 0.00000
H483 H 0.16860 0.41171 0.09346 0.00000
C484 C 0.21679 0.40802 0.11258 0.00000
C485 C 0.27436 0.39938 0.13756 0.00000
H486 H 0.21850 0.43009 0.12248 0.00000
H487 H 0.27488 0.42373 0.13589 0.00000
H488 H 0.29326 0.39093 0.12064 0.00000
C489 C 0.86482 0.68228 0.41755 0.00000
H490 H 0.91337 0.68342 0.43398 0.00000
C491 C 0.90670 0.71799 0.38747 0.00000
H492 H 0.92909 0.72481 0.38641 0.00000
C493 C 0.89729 0.69316 0.41563 0.00000
C494 C 0.88349 0.73309 0.36055 0.00000
C495 C 0.84181 0.69733 0.39098 0.00000
H496 H 0.81923 0.69114 0.39260 0.00000
C497 C 0.85185 0.72165 0.36178 0.00000
C498 C 0.89336 0.75941 0.32958 0.00000
H499 H 0.83620 0.73050 0.34219 0.00000
H500 H 0.87729 0.75971 0.30556 0.00000
H501 H 0.91513 0.75360 0.31729 0.00000
C502 C 0.23967 0.39176 0.60028 0.00000
H503 H 0.25418 0.35266 0.56376 0.00000
C504 C 0.28979 0.36008 0.60870 0.00000
H505 H 0.30368 0.34269 0.59913 0.00000
C506 C 0.26034 0.36622 0.58749 0.00000
C507 C 0.29926 0.37930 0.64409 0.00000
C508 C 0.24901 0.41072 0.63544 0.00000
H509 H 0.23487 0.42766 0.64579 0.00000
C510 C 0.27928 0.40489 0.65570 0.00000
C511 C 0.33112 0.37336 0.66672 0.00000
H512 H 0.28617 0.41916 0.67824 0.00000
H513 H 0.33807 0.39413 0.68074 0.00000
H514 H 0.34801 0.36765 0.64488 0.00000
C515 C 0.18459 0.13825 0.17013 0.00000
H516 H 0.16083 0.12892 0.11357 0.00000
C517 C 0.20985 0.12590 0.10124 0.00000
H518 H 0.20751 0.12113 0.07135 0.00000
C519 C 0.18204 0.13077 0.12644 0.00000
C520 C 0.24134 0.12798 0.11942 0.00000
C521 C 0.21580 0.14019 0.18816 0.00000
H522 H 0.21827 0.14421 0.21824 0.00000
C523 C 0.24366 0.13623 0.16206 0.00000
C524 C 0.27146 0.12339 0.09257 0.00000
H525 H 0.26486 0.13936 0.17433 0.00000
H526 H 0.28992 0.13521 0.10654 0.00000
H527 H 0.26766 0.13378 0.06407 0.00000
C528 C 0.63737 0.68322 0.33198 0.00000
H529 H 0.59637 0.66389 0.36013 0.00000
C530 C 0.60429 0.70847 0.38794 0.00000
H531 H 0.58605 0.70731 0.40714 0.00000
C532 C 0.61063 0.68251 0.36005 0.00000
C533 C 0.62454 0.73638 0.38809 0.00000
C534 C 0.65736 0.71093 0.33204 0.00000
H535 H 0.67519 0.71257 0.31222 0.00000
C536 C 0.65126 0.73650 0.36129 0.00000
C537 C 0.61837 0.76421 0.41842 0.00000
H538 H 0.66616 0.75451 0.36257 0.00000
H539 H 0.63942 0.77594 0.42329 0.00000
H540 H 0.61120 0.75498 0.44649 0.00000
C541 C 0.23686 0.11297 0.64720 0.00000
H542 H 0.22451 0.08884 0.59192 0.00000
C543 C 0.26534 0.11588 0.57867 0.00000
H544 H 0.26681 0.10949 0.54921 0.00000
C545 C 0.24000 0.10376 0.60415 0.00000
C546 C 0.28876 0.13747 0.59594 0.00000
C547 C 0.26015 0.13427 0.66434 0.00000
H548 H 0.25925 0.14016 0.69404 0.00000
C549 C 0.28499 0.14710 0.63789 0.00000
C550 C 0.31578 0.15115 0.56874 0.00000
H551 H 0.29970 0.16301 0.64944 0.00000
H552 H 0.32300 0.17232 0.58145 0.00000
H553 H 0.30681 0.15591 0.53966 0.00000
C554 C 0.86205 0.81473 0.82836 0.00000
H555 H 0.84909 0.83258 0.88736 0.00000
C556 C 0.86160 0.78459 0.89576 0.00000
H557 H 0.85733 0.78416 0.92593 0.00000
C558 C 0.85650 0.81339 0.87262 0.00000
C559 C 0.87295 0.75613 0.87507 0.00000
C560 C 0.87341 0.78655 0.80790 0.00000
H561 H 0.87844 0.78703 0.77791 0.00000
C562 C 0.87747 0.75738 0.83141 0.00000
C563 C 0.87798 0.72484 0.89938 0.00000
H564 H 0.88357 0.73784 0.81660 0.00000
H565 H 0.87598 0.70621 0.87895 0.00000
H566 H 0.86005 0.72263 0.92090 0.00000
C567 C 0.68491 0.63819 0.67080 0.00000
H568 H 0.66297 0.63854 0.61172 0.00000
C569 C 0.71189 0.63155 0.60168 0.00000
H570 H 0.71046 0.63074 0.57107 0.00000
C571 C 0.68362 0.63641 0.62600 0.00000
C572 C 0.74253 0.62786 0.62182 0.00000
C573 C 0.71526 0.63440 0.69075 0.00000
H574 H 0.71674 0.63444 0.72139 0.00000
C575 C 0.74372 0.63054 0.66574 0.00000
C576 C 0.77320 0.62321 0.59606 0.00000
H577 H 0.76452 0.62974 0.67970 0.00000
H578 H 0.79211 0.63104 0.61341 0.00000
H579 H 0.77182 0.63727 0.56999 0.00000
C580 C 0.38808 0.26086 0.84902 0.00000
H581 H 0.35058 0.28196 0.88279 0.00000
C582 C 0.35020 0.23319 0.89725 0.00000
H583 H 0.33171 0.23422 0.91603 0.00000
C584 C 0.36139 0.26160 0.87716 0.00000
C585 C 0.36590 0.20298 0.89007 0.00000
C586 C 0.40370 0.23095 0.84204 0.00000
H587 H 0.42268 0.22989 0.82406 0.00000
C588 C 0.39152 0.20230 0.86149 0.00000
C589 C 0.35379 0.17215 0.91084 0.00000
H590 H 0.40135 0.18174 0.85463 0.00000
H591 H 0.36059 0.15322 0.89280 0.00000
H592 H 0.32938 0.17267 0.91119 0.00000
C593 C 0.13336 0.18467 0.82665 0.00000
H594 H 0.17016 0.21511 0.80658 0.00000
C595 C 0.13918 0.24267 0.84321 0.00000
H596 H 0.15107 0.26270 0.83998 0.00000
C597 C 0.15041 0.21428 0.82309 0.00000
C598 C 0.11048 0.24207 0.86821 0.00000
C599 C 0.10497 0.18407 0.85156 0.00000
H600 H 0.09339 0.16394 0.85571 0.00000
C601 C 0.09339 0.21313 0.87057 0.00000
C602 C 0.09781 0.27252 0.88939 0.00000
H603 H 0.07301 0.21274 0.88560 0.00000
H604 H 0.07377 0.27006 0.89369 0.00000
H605 H 0.10128 0.29133 0.86953 0.00000
C606 C 0.81675 0.63742 0.08196 0.00000
H607 H 0.83645 0.59707 0.11123 0.00000
C608 C 0.79165 0.60482 0.13851 0.00000
H609 H 0.79295 0.58687 0.15815 0.00000
C610 C 0.81766 0.61109 0.11067 0.00000
C611 C 0.76350 0.62472 0.13796 0.00000
C612 C 0.78880 0.65707 0.08132 0.00000
H613 H 0.78703 0.67460 0.06107 0.00000
C614 C 0.76317 0.65106 0.11052 0.00000
C615 C 0.73561 0.61863 0.16822 0.00000
H616 H 0.74498 0.66575 0.11131 0.00000
H617 H 0.72359 0.63959 0.17250 0.00000
H618 H 0.74479 0.61197 0.19653 0.00000
C619 C 0.36561 0.31779 0.33210 0.00000
H620 H 0.40927 0.30820 0.30228 0.00000
C621 C 0.40609 0.27714 0.35346 0.00000
H622 H 0.42685 0.26688 0.34883 0.00000
C623 C 0.39563 0.30195 0.32589 0.00000
C624 C 0.38635 0.26711 0.38807 0.00000
C625 C 0.34600 0.30775 0.36631 0.00000
H626 H 0.32488 0.31741 0.37052 0.00000
C627 C 0.35733 0.28340 0.39465 0.00000
C628 C 0.39753 0.24089 0.41840 0.00000
H629 H 0.34446 0.27801 0.41923 0.00000
H630 H 0.38628 0.24418 0.44640 0.00000
H631 H 0.42149 0.24364 0.42338 0.00000
C632 C 0.03241 0.03630 0.29803 0.00000
H633 H 0.04521 0.01743 0.23951 0.00000
C634 C 0.01376 0.98478 0.26718 0.00000
H635 H 0.01434 0.96933 0.24414 0.00000
C636 C 0.03233 0.01341 0.26463 0.00000
C637 C 0.99421 0.97844 0.30343 0.00000
C638 C 0.01293 0.03006 0.33388 0.00000
H639 H 0.01167 0.04578 0.35660 0.00000
C640 C 0.99513 0.00010 0.33659 0.00000
C641 C 0.97459 0.94751 0.30696 0.00000
H642 H 0.98331 0.99584 0.36228 0.00000
H643 H 0.97104 0.94266 0.33791 0.00000
H644 H 0.98772 0.92919 0.29467 0.00000
C645 C 0.03883 0.47072 0.54258 0.00000
H646 H 0.05701 0.50383 0.58581 0.00000
C647 C 0.01451 0.52307 0.56221 0.00000
H648 H 0.01553 0.54292 0.57846 0.00000
C649 C 0.03933 0.49980 0.56633 0.00000
C650 C 0.98797 0.51760 0.53429 0.00000
C651 C 0.01246 0.46525 0.51504 0.00000
H652 H 0.01091 0.44512 0.49945 0.00000
C653 C 0.98812 0.48941 0.51021 0.00000
C654 C 0.96142 0.54265 0.52896 0.00000
H655 H 0.97116 0.48612 0.48956 0.00000
H656 H 0.95127 0.53962 0.50021 0.00000
H657 H 0.97160 0.56483 0.52949 0.00000
C658 C 0.52848 0.96052 0.45593 0.00000
H659 H 0.51213 0.95587 0.39412 0.00000
C660 C 0.48464 0.99171 0.42223 0.00000
H661 H 0.47131 0.99595 0.39762 0.00000
C662 C 0.50887 0.96767 0.42032 0.00000
C663 C 0.47961 0.00978 0.46013 0.00000
C664 C 0.52357 0.97852 0.49342 0.00000
H665 H 0.53732 0.97491 0.51784 0.00000
C666 C 0.49835 0.00200 0.49530 0.00000
C667 C 0.45327 0.03529 0.46289 0.00000
H668 H 0.49410 0.01288 0.52184 0.00000
H669 H 0.44683 0.03779 0.49351 0.00000
H670 H 0.43372 0.02723 0.44691 0.00000
C671 C 0.53744 0.96899 0.04959 0.00000
H672 H 0.50311 0.93705 0.02625 0.00000
C673 C 0.47884 0.97887 0.04295 0.00000
H674 H 0.45756 0.97108 0.03515 0.00000
C675 C 0.50603 0.95854 0.03793 0.00000
C676 C 0.48245 0.01076 0.05944 0.00000
C677 C 0.54101 0.00010 0.06579 0.00000
H678 H 0.56233 0.00884 0.07272 0.00000
C679 C 0.51322 0.02052 0.07192 0.00000
C680 C 0.45337 0.03267 0.06573 0.00000
H681 H 0.51581 0.04145 0.08517 0.00000
H682 H 0.45868 0.04881 0.08862 0.00000
H683 H 0.43469 0.01910 0.07613 0.00000
C684 C 0.96780 0.53648 0.95155 0.00000
H685 H 0.95012 0.51367 0.00528 0.00000
C686 C 0.98393 0.48292 0.97867 0.00000
H687 H 0.98144 0.46593 0.99990 0.00000
C688 C 0.96512 0.51134 0.98186 0.00000
C689 C 0.00652 0.47903 0.94494 0.00000
C690 C 0.99029 0.53266 0.91822 0.00000
H691 H 0.99342 0.54989 0.89781 0.00000
C692 C 0.00836 0.50341 0.91465 0.00000
C693 C 0.02648 0.44837 0.94066 0.00000
H694 H 0.02235 0.50040 0.89042 0.00000
H695 H 0.03270 0.44569 0.90999 0.00000
H696 H 0.01247 0.42934 0.94868 0.00000
C697 C 0.46735 0.46389 0.79434 0.00000
H698 H 0.49164 0.45283 0.73871 0.00000
C699 C 0.50783 0.49779 0.75802 0.00000
H700 H 0.52242 0.50101 0.73440 0.00000
C701 C 0.48927 0.46916 0.76054 0.00000
C702 C 0.50522 0.52202 0.78997 0.00000
C703 C 0.46487 0.48785 0.82608 0.00000
H704 H 0.45087 0.48444 0.85030 0.00000
C705 C 0.48298 0.51707 0.82242 0.00000
C706 C 0.52457 0.55317 0.78729 0.00000
H707 H 0.47973 0.53399 0.84313 0.00000
H708 H 0.51274 0.57043 0.80368 0.00000
H709 H 0.52538 0.56025 0.75671 0.00000
C710 C 0.46342 0.46793 0.20131 0.00000
H711 H 0.48825 0.44775 0.25191 0.00000
C712 C 0.51798 0.48282 0.22612 0.00000
H713 H 0.53575 0.47937 0.24558 0.00000
C714 C 0.48969 0.46384 0.22964 0.00000
C715 C 0.52059 0.50699 0.19410 0.00000
C716 C 0.46598 0.49197 0.16968 0.00000
H717 H 0.44799 0.49604 0.15074 0.00000
C718 C 0.49507 0.51023 0.16567 0.00000
C719 C 0.55108 0.52717 0.18944 0.00000
H720 H 0.49717 0.52536 0.14247 0.00000
H721 H 0.55258 0.53485 0.15920 0.00000
H722 H 0.57037 0.51283 0.19502 0.00000
C723 C 0.96139 0.97045 0.70769 0.00000
H724 H 0.94057 0.00684 0.67163 0.00000
C725 C 0.98457 0.02422 0.69288 0.00000
H726 H 0.98257 0.04528 0.67971 0.00000
C727 C 0.95946 0.00131 0.68834 0.00000
C728 C 0.01284 0.01660 0.71673 0.00000
C729 C 0.98947 0.96287 0.73119 0.00000
H730 H 0.99194 0.94157 0.74362 0.00000
C731 C 0.01415 0.98659 0.73661 0.00000
C732 C 0.03977 0.04118 0.72251 0.00000
H733 H 0.03240 0.98170 0.75466 0.00000
H734 H 0.05178 0.03585 0.74941 0.00000
H735 H 0.02970 0.06324 0.72628 0.00000
C736 C 0.70577 0.89299 0.40162 0.00000
H737 H 0.70600 0.84476 0.38359 0.00000
C738 C 0.74568 0.86624 0.35534 0.00000
H739 H 0.75305 0.84692 0.34093 0.00000
C740 C 0.71749 0.86507 0.38060 0.00000
C741 C 0.76335 0.89565 0.35085 0.00000
C742 C 0.72336 0.92210 0.39730 0.00000
H743 H 0.71653 0.94132 0.41243 0.00000
C744 C 0.75118 0.92316 0.37063 0.00000
C745 C 0.79335 0.89741 0.32320 0.00000
H746 H 0.76196 0.94363 0.36613 0.00000
H747 H 0.79623 0.92047 0.31353 0.00000
H748 H 0.78963 0.88372 0.29718 0.00000
C749 C 0.10986 0.20590 0.65199 0.00000
H750 H 0.14589 0.22782 0.68756 0.00000
C751 C 0.13479 0.25911 0.63858 0.00000
H752 H 0.15044 0.27548 0.64641 0.00000
C753 C 0.13217 0.23055 0.66291 0.00000
C754 C 0.11460 0.26402 0.60254 0.00000
C755 C 0.08977 0.21084 0.61636 0.00000
H756 H 0.07355 0.19489 0.60895 0.00000
C757 C 0.09339 0.23932 0.59133 0.00000
C758 C 0.11754 0.29432 0.57564 0.00000
H759 H 0.08073 0.24157 0.56575 0.00000
H760 H 0.10956 0.28921 0.54622 0.00000
H761 H 0.14117 0.30021 0.57336 0.00000
C762 C 0.60591 0.79206 0.09299 0.00000
H763 H 0.57992 0.80602 0.14612 0.00000
C764 C 0.58589 0.75645 0.14990 0.00000
H765 H 0.57410 0.75388 0.17619 0.00000
C766 C 0.58922 0.78751 0.13174 0.00000
C767 C 0.59973 0.72885 0.12980 0.00000
C768 C 0.61972 0.76472 0.07317 0.00000
H769 H 0.63218 0.76724 0.04737 0.00000
C770 C 0.61529 0.73340 0.09117 0.00000
C771 C 0.59585 0.69525 0.14855 0.00000
H772 H 0.62335 0.71470 0.07609 0.00000
H773 H 0.59783 0.67893 0.12497 0.00000
H774 H 0.57333 0.69333 0.16063 0.00000
C775 C 0.20633 0.39437 0.90303 0.00000
H776 H 0.19434 0.36252 0.85476 0.00000
C777 C 0.23999 0.38018 0.84129 0.00000
H778 H 0.24260 0.36827 0.81508 0.00000
C779 C 0.21113 0.37695 0.86489 0.00000
C780 C 0.26530 0.40084 0.85571 0.00000
C781 C 0.23146 0.41475 0.91739 0.00000
H782 H 0.22930 0.42614 0.94408 0.00000
C783 C 0.26002 0.41854 0.89256 0.00000
C784 C 0.29620 0.40500 0.83029 0.00000
H785 H 0.27627 0.43390 0.90159 0.00000
H786 H 0.30590 0.42667 0.83751 0.00000
H787 H 0.29044 0.40532 0.79922 0.00000
C788 C 0.89348 0.70820 0.59237 0.00000
H789 H 0.93014 0.69837 0.63533 0.00000
C790 C 0.91870 0.74679 0.64193 0.00000
H791 H 0.93459 0.75118 0.66373 0.00000
C792 C 0.91614 0.71535 0.62473 0.00000
C793 C 0.89811 0.77213 0.62743 0.00000
C794 C 0.87300 0.73329 0.57813 0.00000
H795 H 0.85655 0.72887 0.55703 0.00000
C796 C 0.87656 0.76513 0.59483 0.00000
C797 C 0.90099 0.80617 0.64508 0.00000
H798 H 0.86360 0.78244 0.58316 0.00000
H799 H 0.89260 0.82181 0.62318 0.00000
H800 H 0.92463 0.81112 0.64966 0.00000
C801 C 0.20798 0.10600 0.34287 0.00000
H802 H 0.19462 0.07804 0.39453 0.00000
C803 C 0.24405 0.08498 0.39866 0.00000
H804 H 0.24689 0.07243 0.42429 0.00000
C805 C 0.21292 0.08820 0.38068 0.00000
C806 C 0.27133 0.10005 0.37935 0.00000
C807 C 0.23501 0.12103 0.32384 0.00000
H808 H 0.23221 0.13424 0.29874 0.00000
C809 C 0.26643 0.11672 0.34160 0.00000
C810 C 0.30502 0.09632 0.39789 0.00000
H811 H 0.28494 0.12566 0.32698 0.00000
H812 H 0.32128 0.09940 0.37444 0.00000
H813 H 0.30743 0.07348 0.40874 0.00000
C814 C 0.79322 0.60526 0.90417 0.00000
H815 H 0.80928 0.62179 0.84581 0.00000
C816 C 0.76111 0.60952 0.83858 0.00000
H817 H 0.75996 0.61494 0.80876 0.00000
C818 C 0.79056 0.61339 0.86070 0.00000
C819 C 0.73306 0.59768 0.85977 0.00000
C820 C 0.76538 0.59364 0.92519 0.00000
H821 H 0.76618 0.58889 0.95524 0.00000
C822 C 0.73610 0.58890 0.90214 0.00000
C823 C 0.70140 0.59285 0.83623 0.00000
H824 H 0.71776 0.57928 0.91637 0.00000
H825 H 0.68844 0.57581 0.85151 0.00000
H826 H 0.70641 0.58429 0.80701 0.00000
C827 C 0.39137 0.20567 0.09858 0.00000
H828 H 0.34404 0.21868 0.08504 0.00000
C829 C 0.36203 0.25308 0.12634 0.00000
H830 H 0.34231 0.26567 0.12785 0.00000
C831 C 0.36306 0.22491 0.10103 0.00000
C832 C 0.38977 0.26311 0.14970 0.00000
C833 C 0.41889 0.21570 0.12162 0.00000
H834 H 0.43892 0.20362 0.11945 0.00000
C835 C 0.41717 0.24360 0.14806 0.00000
C836 C 0.38884 0.29300 0.17763 0.00000
H837 H 0.43562 0.24918 0.16543 0.00000
H838 H 0.40568 0.29054 0.20049 0.00000
H839 H 0.36703 0.29402 0.19192 0.00000
loop_
_geom_bond_atom_site_label_1
_geom_bond_atom_site_label_2
_geom_bond_distance
_geom_bond_site_symmetry_2
_ccdc_geom_bond_type
Zn0 O5 1.991 . S
Zn0 O6 1.968 . S
Zn0 O12 1.928 . S
Zn0 O13 1.929 . S
Zn1 O11 2.165 . S
Zn1 O13 2.095 . S
Zn1 O15 1.986 . S
Zn1 O16 2.003 . S
Zn2 O4 2.152 . S
Zn2 O13 2.019 . S
Zn2 O14 1.962 . S
Zn2 O17 2.073 . S
C3 O14 1.279 . A
C3 O15 1.276 . A
O4 C10 1.268 . A
O5 C10 1.245 . A
O6 C19 1.278 . A
O7 H18 0.840 . S
O7 C19 1.287 . A
C8 O16 1.272 . A
C8 O17 1.203 . A
C9 O11 1.275 . A
C9 O12 1.272 . A
Zn20 O25 1.991 . S
Zn20 O26 1.968 . S
Zn20 O32 1.928 . S
Zn20 O33 1.929 . S
Zn21 O31 2.165 . S
Zn21 O33 2.095 . S
Zn21 O35 1.986 . S
Zn21 O36 2.003 . S
Zn22 O24 2.152 . S
Zn22 O33 2.019 . S
Zn22 O34 1.962 . S
Zn22 O37 2.073 . S
C23 O34 1.279 . A
C23 O35 1.276 . A
O24 C30 1.268 . A
O25 C30 1.245 . A
O26 C39 1.278 . A
O27 H38 0.840 . S
O27 C39 1.287 . A
C28 O36 1.272 . A
C28 O37 1.203 . A
C29 O31 1.275 . A
C29 O32 1.272 . A
Zn40 O45 1.991 . S
Zn40 O46 1.968 . S
Zn40 O52 1.928 . S
Zn40 O53 1.929 . S
Zn41 O51 2.165 . S
Zn41 O53 2.095 . S
Zn41 O55 1.986 . S
Zn41 O56 2.003 . S
Zn42 O44 2.152 . S
Zn42 O53 2.019 . S
Zn42 O54 1.962 . S
Zn42 O57 2.073 . S
C43 O54 1.279 . A
C43 O55 1.276 . A
O44 C50 1.268 . A
O45 C50 1.245 . A
O46 C59 1.278 . A
O47 H58 0.840 . S
O47 C59 1.287 . A
C48 O56 1.272 . A
C48 O57 1.203 . A
C49 O51 1.275 . A
C49 O52 1.272 . A
Zn60 O65 1.991 . S
Zn60 O66 1.968 1_554 S
Zn60 O72 1.928 . S
Zn60 O73 1.929 . S
Zn61 O71 2.165 . S
Zn61 O73 2.095 . S
Zn61 O75 1.986 . S
Zn61 O76 2.003 . S
Zn62 O64 2.152 . S
Zn62 O73 2.019 . S
Zn62 O74 1.962 . S
Zn62 O77 2.073 . S
C63 O74 1.279 . A
C63 O75 1.276 . A
O64 C70 1.268 . A
O65 C70 1.245 . A
O66 C79 1.278 . A
O67 H78 0.840 . S
O67 C79 1.287 . A
C68 O76 1.272 . A
C68 O77 1.203 . A
C69 O71 1.275 . A
C69 O72 1.272 . A
Zn80 O85 1.991 . S
Zn80 O86 1.968 1_556 S
Zn80 O92 1.928 . S
Zn80 O93 1.929 . S
Zn81 O91 2.165 . S
Zn81 O93 2.095 . S
Zn81 O95 1.986 . S
Zn81 O96 2.003 . S
Zn82 O84 2.152 . S
Zn82 O93 2.019 . S
Zn82 O94 1.962 . S
Zn82 O97 2.073 . S
C83 O94 1.279 . A
C83 O95 1.276 . A
O84 C90 1.268 . A
O85 C90 1.245 . A
O86 C99 1.278 . A
O87 H98 0.840 . S
O87 C99 1.287 . A
C88 O96 1.272 . A
C88 O97 1.203 . A
C89 O91 1.275 . A
C89 O92 1.272 . A
Zn100 O105 1.991 . S
Zn100 O106 1.968 . S
Zn100 O112 1.928 . S
Zn100 O113 1.929 . S
Zn101 O111 2.165 . S
Zn101 O113 2.095 . S
Zn101 O115 1.986 . S
Zn101 O116 2.003 . S
Zn102 O104 2.152 . S
Zn102 O113 2.019 . S
Zn102 O114 1.962 . S
Zn102 O117 2.073 . S
C103 O114 1.279 . A
C103 O115 1.276 . A
O104 C110 1.268 . A
O105 C110 1.245 . A
O106 C119 1.278 . A
O107 H118 0.840 . S
O107 C119 1.287 . A
C108 O116 1.272 . A
C108 O117 1.203 . A
C109 O111 1.275 . A
C109 O112 1.272 . A
Zn120 O125 1.991 . S
Zn120 O126 1.968 . S
Zn120 O132 1.928 . S
Zn120 O133 1.929 . S
Zn121 O131 2.165 . S
Zn121 O133 2.095 . S
Zn121 O135 1.986 . S
Zn121 O136 2.003 . S
Zn122 O124 2.152 . S
Zn122 O133 2.019 . S
Zn122 O134 1.962 . S
Zn122 O137 2.073 . S
C123 O134 1.279 . A
C123 O135 1.276 . A
O124 C130 1.268 . A
O125 C130 1.245 . A
O126 C139 1.278 . A
O127 H138 0.840 . S
O127 C139 1.287 . A
C128 O136 1.272 . A
C128 O137 1.203 . A
C129 O131 1.275 . A
C129 O132 1.272 . A
Zn140 O145 1.991 . S
Zn140 O146 1.968 . S
Zn140 O152 1.928 . S
Zn140 O153 1.929 . S
Zn141 O151 2.165 . S
Zn141 O153 2.095 . S
Zn141 O155 1.986 . S
Zn141 O156 2.003 . S
Zn142 O144 2.152 . S
Zn142 O153 2.019 . S
Zn142 O154 1.962 . S
Zn142 O157 2.073 . S
C143 O154 1.279 . A
C143 O155 1.276 . A
O144 C150 1.268 . A
O145 C150 1.245 . A
O146 C159 1.278 . A
O147 H158 0.840 . S
O147 C159 1.287 . A
C148 O156 1.272 . A
C148 O157 1.203 . A
C149 O151 1.275 . A
C149 O152 1.272 . A
Zn160 O165 1.991 . S
Zn160 O166 1.968 . S
Zn160 O172 1.928 . S
Zn160 O173 1.929 . S
Zn161 O171 2.165 . S
Zn161 O173 2.095 . S
Zn161 O175 1.986 . S
Zn161 O176 2.003 . S
Zn162 O164 2.152 . S
Zn162 O173 2.019 . S
Zn162 O174 1.962 . S
Zn162 O177 2.073 . S
C163 O174 1.279 . A
C163 O175 1.276 . A
O164 C170 1.268 . A
O165 C170 1.245 . A
O166 C179 1.278 . A
O167 H178 0.840 . S
O167 C179 1.287 . A
C168 O176 1.272 . A
C168 O177 1.203 . A
C169 O171 1.275 . A
C169 O172 1.272 . A
Zn180 O185 1.991 . S
Zn180 O186 1.968 . S
Zn180 O192 1.928 . S
Zn180 O193 1.929 . S
Zn181 O191 2.165 . S
Zn181 O193 2.095 . S
Zn181 O195 1.986 . S
Zn181 O196 2.003 . S
Zn182 O184 2.152 . S
Zn182 O193 2.019 . S
Zn182 O194 1.962 . S
Zn182 O197 2.073 . S
C183 O194 1.279 . A
C183 O195 1.276 . A
O184 C190 1.268 . A
O185 C190 1.245 . A
O186 C199 1.278 . A
O187 H198 0.840 . S
O187 C199 1.287 . A
C188 O196 1.272 . A
C188 O197 1.203 . A
C189 O191 1.275 . A
C189 O192 1.272 . A
Zn200 O205 1.991 . S
Zn200 O206 1.968 . S
Zn200 O212 1.928 . S
Zn200 O213 1.929 . S
Zn201 O211 2.165 . S
Zn201 O213 2.095 . S
Zn201 O215 1.986 . S
Zn201 O216 2.003 . S
Zn202 O204 2.152 . S
Zn202 O213 2.019 . S
Zn202 O214 1.962 . S
Zn202 O217 2.073 . S
C203 O214 1.279 . A
C203 O215 1.276 . A
O204 C210 1.268 . A
O205 C210 1.245 . A
O206 C219 1.278 . A
O207 H218 0.840 . S
O207 C219 1.287 . A
C208 O216 1.272 . A
C208 O217 1.203 . A
C209 O211 1.275 . A
C209 O212 1.272 . A
Zn220 O225 1.991 . S
Zn220 O226 1.968 . S
Zn220 O232 1.928 . S
Zn220 O233 1.929 . S
Zn221 O231 2.165 . S
Zn221 O233 2.095 . S
Zn221 O235 1.986 . S
Zn221 O236 2.003 . S
Zn222 O224 2.152 . S
Zn222 O233 2.019 . S
Zn222 O234 1.962 . S
Zn222 O237 2.073 . S
C223 O234 1.279 . A
C223 O235 1.276 . A
O224 C230 1.268 . A
O225 C230 1.245 . A
O226 C239 1.278 . A
O227 H238 0.840 . S
O227 C239 1.287 . A
C228 O236 1.272 . A
C228 O237 1.203 . A
C229 O231 1.275 . A
C229 O232 1.272 . A
Zn240 O245 1.991 . S
Zn240 O246 1.968 1_554 S
Zn240 O252 1.928 . S
Zn240 O253 1.929 . S
Zn241 O251 2.165 . S
Zn241 O253 2.095 . S
Zn241 O255 1.986 . S
Zn241 O256 2.003 . S
Zn242 O244 2.152 . S
Zn242 O253 2.019 . S
Zn242 O254 1.962 . S
Zn242 O257 2.073 . S
C243 O254 1.279 . A
C243 O255 1.276 . A
O244 C250 1.268 . A
O245 C250 1.245 . A
O246 C259 1.278 . A
O247 H258 0.840 . S
O247 C259 1.287 . A
C248 O256 1.272 . A
C248 O257 1.203 . A
C249 O251 1.275 . A
C249 O252 1.272 . A
Zn260 O265 1.991 . S
Zn260 O266 1.968 . S
Zn260 O272 1.928 . S
Zn260 O273 1.929 . S
Zn261 O271 2.165 . S
Zn261 O273 2.095 . S
Zn261 O275 1.986 . S
Zn261 O276 2.003 . S
Zn262 O264 2.152 . S
Zn262 O273 2.019 . S
Zn262 O274 1.962 . S
Zn262 O277 2.073 . S
C263 O274 1.279 . A
C263 O275 1.276 . A
O264 C270 1.268 . A
O265 C270 1.245 . A
O266 C279 1.278 . A
O267 H278 0.840 . S
O267 C279 1.287 . A
C268 O276 1.272 . A
C268 O277 1.203 . A
C269 O271 1.275 . A
C269 O272 1.272 . A
Zn280 O285 1.991 . S
Zn280 O286 1.968 1_556 S
Zn280 O292 1.928 . S
Zn280 O293 1.929 . S
Zn281 O291 2.165 . S
Zn281 O293 2.095 . S
Zn281 O295 1.986 . S
Zn281 O296 2.003 . S
Zn282 O284 2.152 . S
Zn282 O293 2.019 . S
Zn282 O294 1.962 . S
Zn282 O297 2.073 . S
C283 O294 1.279 . A
C283 O295 1.276 . A
O284 C290 1.268 . A
O285 C290 1.245 . A
O286 C299 1.278 . A
O287 H298 0.840 . S
O287 C299 1.287 . A
C288 O296 1.272 . A
C288 O297 1.203 . A
C289 O291 1.275 . A
C289 O292 1.272 . A
Zn300 O305 1.991 . S
Zn300 O306 1.968 . S
Zn300 O312 1.928 . S
Zn300 O313 1.929 . S
Zn301 O311 2.165 . S
Zn301 O313 2.095 . S
Zn301 O315 1.986 . S
Zn301 O316 2.003 . S
Zn302 O304 2.152 . S
Zn302 O313 2.019 . S
Zn302 O314 1.962 . S
Zn302 O317 2.073 . S
C303 O314 1.279 . A
C303 O315 1.276 . A
O304 C310 1.268 . A
O305 C310 1.245 . A
O306 C319 1.278 . A
O307 H318 0.840 . S
O307 C319 1.287 . A
C308 O316 1.272 . A
C308 O317 1.203 . A
C309 O311 1.275 . A
C309 O312 1.272 . A
C320 C324 1.390 . A
C320 C326 1.386 . A
H321 C324 0.951 . S
C322 H323 0.950 . S
C322 C324 1.386 . A
C322 C325 1.399 . A
C325 C328 1.365 . A
C325 C329 1.490 . S
C326 H327 0.951 . S
C326 C328 1.399 . A
C328 H330 0.949 . S
C329 H331 0.989 . S
C329 H332 0.990 . S
C333 C337 1.390 . A
C333 C339 1.386 . A
H334 C337 0.951 . S
C335 H336 0.950 . S
C335 C337 1.386 . A
C335 C338 1.399 . A
C338 C341 1.365 . A
C338 C342 1.490 . S
C339 H340 0.951 . S
C339 C341 1.399 . A
C341 H343 0.949 . S
C342 H344 0.989 . S
C342 H345 0.990 . S
C346 C350 1.390 . A
C346 C352 1.386 . A
H347 C350 0.951 . S
C348 H349 0.950 . S
C348 C350 1.386 . A
C348 C351 1.399 . A
C351 C354 1.365 . A
C351 C355 1.490 . S
C352 H353 0.951 . S
C352 C354 1.399 . A
C354 H356 0.949 . S
C355 H357 0.989 . S
C355 H358 0.990 . S
C359 C363 1.390 . A
C359 C365 1.386 . A
H360 C363 0.951 . S
C361 H362 0.950 . S
C361 C363 1.386 . A
C361 C364 1.399 . A
C364 C367 1.365 . A
C364 C368 1.490 . S
C365 H366 0.951 . S
C365 C367 1.399 . A
C367 H369 0.949 . S
C368 H370 0.989 . S
C368 H371 0.990 . S
C372 C376 1.390 . A
C372 C378 1.386 . A
H373 C376 0.951 . S
C374 H375 0.950 . S
C374 C376 1.386 1_554 A
C374 C377 1.399 . A
C377 C380 1.365 1_554 A
C377 C381 1.490 . S
C378 H379 0.951 . S
C378 C380 1.399 . A
C380 H382 0.949 1_556 S
C381 H383 0.989 . S
C381 H384 0.990 . S
C385 C389 1.390 . A
C385 C391 1.386 . A
H386 C389 0.951 . S
C387 H388 0.950 . S
C387 C389 1.386 . A
C387 C390 1.399 . A
C390 C393 1.365 . A
C390 C394 1.490 . S
C391 H392 0.951 . S
C391 C393 1.399 . A
C393 H395 0.949 . S
C394 H396 0.989 . S
C394 H397 0.990 . S
C398 C402 1.390 . A
C398 C404 1.386 . A
H399 C402 0.951 . S
C400 H401 0.950 . S
C400 C402 1.386 1_556 A
C400 C403 1.399 . A
C403 C406 1.365 . A
C403 C407 1.490 . S
C404 H405 0.951 . S
C404 C406 1.399 1_554 A
C406 H408 0.949 . S
C407 H409 0.989 . S
C407 H410 0.990 . S
C411 C415 1.390 . A
C411 C417 1.386 . A
H412 C415 0.951 . S
C413 H414 0.950 . S
C413 C415 1.386 . A
C413 C416 1.399 . A
C416 C419 1.365 . A
C416 C420 1.490 . S
C417 H418 0.951 . S
C417 C419 1.399 . A
C419 H421 0.949 . S
C420 H422 0.989 . S
C420 H423 0.990 . S
C424 C428 1.390 . A
C424 C430 1.386 . A
H425 C428 0.951 . S
C426 H427 0.950 . S
C426 C428 1.386 . A
C426 C429 1.399 . A
C429 C432 1.365 . A
C429 C433 1.490 . S
C430 H431 0.951 . S
C430 C432 1.399 . A
C432 H434 0.949 . S
C433 H435 0.989 . S
C433 H436 0.990 . S
C437 C441 1.390 . A
C437 C443 1.386 . A
H438 C441 0.951 . S
C439 H440 0.950 . S
C439 C441 1.386 . A
C439 C442 1.399 . A
C442 C445 1.365 . A
C442 C446 1.490 . S
C443 H444 0.951 . S
C443 C445 1.399 . A
C445 H447 0.949 . S
C446 H448 0.989 . S
C446 H449 0.990 . S
C450 C454 1.390 . A
C450 C456 1.386 . A
H451 C454 0.951 . S
C452 H453 0.950 . S
C452 C454 1.386 . A
C452 C455 1.399 . A
C455 C458 1.365 . A
C455 C459 1.490 . S
C456 H457 0.951 . S
C456 C458 1.399 . A
C458 H460 0.949 . S
C459 H461 0.989 . S
C459 H462 0.990 . S
C463 C467 1.390 . A
C463 C469 1.386 . A
H464 C467 0.951 . S
C465 H466 0.950 . S
C465 C467 1.386 . A
C465 C468 1.399 . A
C468 C471 1.365 . A
C468 C472 1.490 . S
C469 H470 0.951 . S
C469 C471 1.399 . A
C471 H473 0.949 . S
C472 H474 0.989 . S
C472 H475 0.990 . S
C476 C480 1.390 . A
C476 C482 1.386 . A
H477 C480 0.951 . S
C478 H479 0.950 . S
C478 C480 1.386 . A
C478 C481 1.399 . A
C481 C484 1.365 . A
C481 C485 1.490 . S
C482 H483 0.951 . S
C482 C484 1.399 . A
C484 H486 0.949 . S
C485 H487 0.989 . S
C485 H488 0.990 . S
C489 C493 1.390 . A
C489 C495 1.386 . A
H490 C493 0.951 . S
C491 H492 0.950 . S
C491 C493 1.386 . A
C491 C494 1.399 . A
C494 C497 1.365 . A
C494 C498 1.490 . S
C495 H496 0.951 . S
C495 C497 1.399 . A
C497 H499 0.949 . S
C498 H500 0.989 . S
C498 H501 0.990 . S
C502 C506 1.390 . A
C502 C508 1.386 . A
H503 C506 0.951 . S
C504 H505 0.950 . S
C504 C506 1.386 . A
C504 C507 1.399 . A
C507 C510 1.365 . A
C507 C511 1.490 . S
C508 H509 0.951 . S
C508 C510 1.399 . A
C510 H512 0.949 . S
C511 H513 0.989 . S
C511 H514 0.990 . S
C515 C519 1.390 . A
C515 C521 1.386 . A
H516 C519 0.951 . S
C517 H518 0.950 . S
C517 C519 1.386 . A
C517 C520 1.399 . A
C520 C523 1.365 . A
C520 C524 1.490 . S
C521 H522 0.951 . S
C521 C523 1.399 . A
C523 H525 0.949 . S
C524 H526 0.989 . S
C524 H527 0.990 . S
C528 C532 1.390 . A
C528 C534 1.386 . A
H529 C532 0.951 . S
C530 H531 0.950 . S
C530 C532 1.386 . A
C530 C533 1.399 . A
C533 C536 1.365 . A
C533 C537 1.490 . S
C534 H535 0.951 . S
C534 C536 1.399 . A
C536 H538 0.949 . S
C537 H539 0.989 . S
C537 H540 0.990 . S
C541 C545 1.390 . A
C541 C547 1.386 . A
H542 C545 0.951 . S
C543 H544 0.950 . S
C543 C545 1.386 . A
C543 C546 1.399 . A
C546 C549 1.365 . A
C546 C550 1.490 . S
C547 H548 0.951 . S
C547 C549 1.399 . A
C549 H551 0.949 . S
C550 H552 0.989 . S
C550 H553 0.990 . S
C554 C558 1.390 . A
C554 C560 1.386 . A
H555 C558 0.951 . S
C556 H557 0.950 . S
C556 C558 1.386 . A
C556 C559 1.399 . A
C559 C562 1.365 . A
C559 C563 1.490 . S
C560 H561 0.951 . S
C560 C562 1.399 . A
C562 H564 0.949 . S
C563 H565 0.989 . S
C563 H566 0.990 . S
C567 C571 1.390 . A
C567 C573 1.386 . A
H568 C571 0.951 . S
C569 H570 0.950 . S
C569 C571 1.386 . A
C569 C572 1.399 . A
C572 C575 1.365 . A
C572 C576 1.490 . S
C573 H574 0.951 . S
C573 C575 1.399 . A
C575 H577 0.949 . S
C576 H578 0.989 . S
C576 H579 0.990 . S
C580 C584 1.390 . A
C580 C586 1.386 . A
H581 C584 0.951 . S
C582 H583 0.950 . S
C582 C584 1.386 . A
C582 C585 1.399 . A
C585 C588 1.365 . A
C585 C589 1.490 . S
C586 H587 0.951 . S
C586 C588 1.399 . A
C588 H590 0.949 . S
C589 H591 0.989 . S
C589 H592 0.990 . S
C593 C597 1.390 . A
C593 C599 1.386 . A
H594 C597 0.951 . S
C595 H596 0.950 . S
C595 C597 1.386 . A
C595 C598 1.399 . A
C598 C601 1.365 . A
C598 C602 1.490 . S
C599 H600 0.951 . S
C599 C601 1.399 . A
C601 H603 0.949 . S
C602 H604 0.989 . S
C602 H605 0.990 . S
C606 C610 1.390 . A
C606 C612 1.386 . A
H607 C610 0.951 . S
C608 H609 0.950 . S
C608 C610 1.386 . A
C608 C611 1.399 . A
C611 C614 1.365 . A
C611 C615 1.490 . S
C612 H613 0.951 . S
C612 C614 1.399 . A
C614 H616 0.949 . S
C615 H617 0.989 . S
C615 H618 0.990 . S
C619 C623 1.390 . A
C619 C625 1.386 . A
H620 C623 0.951 . S
C621 H622 0.950 . S
C621 C623 1.386 . A
C621 C624 1.399 . A
C624 C627 1.365 . A
C624 C628 1.490 . S
C625 H626 0.951 . S
C625 C627 1.399 . A
C627 H629 0.949 . S
C628 H630 0.989 . S
C628 H631 0.990 . S
C632 C636 1.390 . A
C632 C638 1.386 . A
H633 C636 0.951 . S
C634 H635 0.950 . S
C634 C636 1.386 1_565 A
C634 C637 1.399 1_455 A
C637 C640 1.352 1_565 A
C637 C641 1.490 . S
C638 H639 0.951 . S
C638 C640 1.416 1_455 A
C640 H642 0.945 1_545 S
C641 H643 0.989 . S
C641 H644 0.990 . S
C645 C649 1.390 . A
C645 C651 1.386 . A
H646 C649 0.951 . S
C647 H648 0.950 . S
C647 C649 1.386 . A
C647 C650 1.399 1_455 A
C650 C653 1.365 . A
C650 C654 1.490 . S
C651 H652 0.951 . S
C651 C653 1.399 1_455 A
C653 H655 0.949 . S
C654 H656 0.989 . S
C654 H657 0.990 . S
C658 C662 1.390 . A
C658 C664 1.386 . A
H659 C662 0.951 . S
C660 H661 0.950 . S
C660 C662 1.386 . A
C660 C663 1.399 1_565 A
C663 C666 1.365 . A
C663 C667 1.490 . S
C664 H665 0.951 . S
C664 C666 1.399 1_565 A
C666 H668 0.949 . S
C667 H669 0.989 . S
C667 H670 0.990 . S
C671 C675 1.390 . A
C671 C677 1.366 1_565 A
H672 C675 0.951 . S
C673 H674 0.950 . S
C673 C675 1.386 . A
C673 C676 1.399 1_565 A
C676 C679 1.365 . A
C676 C680 1.490 . S
C677 H678 0.959 . S
C677 C679 1.412 . A
C679 H681 0.949 . S
C680 H682 0.989 . S
C680 H683 0.990 . S
C684 C688 1.390 . A
C684 C690 1.386 . A
H685 C688 0.951 1_554 S
C686 H687 0.958 . S
C686 C688 1.386 . A
C686 C689 1.399 1_655 A
C689 C692 1.365 . A
C689 C693 1.490 . S
C690 H691 0.951 . S
C690 C692 1.399 1_655 A
C692 H694 0.949 . S
C693 H695 0.989 . S
C693 H696 0.990 . S
C697 C701 1.390 . A
C697 C703 1.386 . A
H698 C701 0.951 . S
C699 H700 0.950 . S
C699 C701 1.386 . A
C699 C702 1.399 . A
C702 C705 1.365 . A
C702 C706 1.490 . S
C703 H704 0.951 . S
C703 C705 1.399 . A
C705 H707 0.949 . S
C706 H708 0.989 . S
C706 H709 0.990 . S
C710 C714 1.390 . A
C710 C716 1.386 . A
H711 C714 0.951 . S
C712 H713 0.950 . S
C712 C714 1.386 . A
C712 C715 1.399 . A
C715 C718 1.365 . A
C715 C719 1.490 . S
C716 H717 0.951 . S
C716 C718 1.399 . A
C718 H720 0.949 . S
C719 H721 0.989 . S
C719 H722 0.990 . S
C723 C727 1.390 1_565 A
C723 C729 1.386 . A
H724 C727 0.951 . S
C725 H726 0.950 . S
C725 C727 1.386 . A
C725 C728 1.399 1_655 A
C728 C731 1.365 1_545 A
C728 C732 1.490 . S
C729 H730 0.951 . S
C729 C731 1.399 1_655 A
C731 H733 0.949 . S
C732 H734 0.989 . S
C732 H735 0.990 . S
C736 C740 1.390 . A
C736 C742 1.386 . A
H737 C740 0.951 . S
C738 H739 0.950 . S
C738 C740 1.386 . A
C738 C741 1.399 . A
C741 C744 1.365 . A
C741 C745 1.490 . S
C742 H743 0.951 . S
C742 C744 1.399 . A
C744 H746 0.949 . S
C745 H747 0.989 . S
C745 H748 0.990 . S
C749 C753 1.390 . A
C749 C755 1.386 . A
H750 C753 0.951 . S
C751 H752 0.950 . S
C751 C753 1.386 . A
C751 C754 1.399 . A
C754 C757 1.365 . A
C754 C758 1.490 . S
C755 H756 0.951 . S
C755 C757 1.399 . A
C757 H759 0.949 . S
C758 H760 0.989 . S
C758 H761 0.990 . S
C762 C766 1.390 . A
C762 C768 1.386 . A
H763 C766 0.951 . S
C764 H765 0.950 . S
C764 C766 1.386 . A
C764 C767 1.399 . A
C767 C770 1.365 . A
C767 C771 1.490 . S
C768 H769 0.951 . S
C768 C770 1.399 . A
C770 H772 0.949 . S
C771 H773 0.989 . S
C771 H774 0.990 . S
C775 C779 1.390 . A
C775 C781 1.386 . A
H776 C779 0.951 . S
C777 H778 0.950 . S
C777 C779 1.386 . A
C777 C780 1.399 . A
C780 C783 1.365 . A
C780 C784 1.490 . S
C781 H782 0.951 . S
C781 C783 1.399 . A
C783 H785 0.949 . S
C784 H786 0.989 . S
C784 H787 0.990 . S
C788 C792 1.390 . A
C788 C794 1.386 . A
H789 C792 0.951 . S
C790 H791 0.950 . S
C790 C792 1.386 . A
C790 C793 1.399 . A
C793 C796 1.365 . A
C793 C797 1.490 . S
C794 H795 0.951 . S
C794 C796 1.399 . A
C796 H798 0.949 . S
C797 H799 0.989 . S
C797 H800 0.990 . S
C801 C805 1.390 . A
C801 C807 1.386 . A
H802 C805 0.951 . S
C803 H804 0.950 . S
C803 C805 1.386 . A
C803 C806 1.399 . A
C806 C809 1.365 . A
C806 C810 1.490 . S
C807 H808 0.951 . S
C807 C809 1.399 . A
C809 H811 0.949 . S
C810 H812 0.989 . S
C810 H813 0.990 . S
C814 C818 1.390 . A
C814 C820 1.386 . A
H815 C818 0.951 . S
C816 H817 0.950 . S
C816 C818 1.386 . A
C816 C819 1.399 . A
C819 C822 1.365 . A
C819 C823 1.490 . S
C820 H821 0.951 . S
C820 C822 1.399 . A
C822 H824 0.949 . S
C823 H825 0.989 . S
C823 H826 0.990 . S
C827 C831 1.390 . A
C827 C833 1.386 . A
H828 C831 0.951 . S
C829 H830 0.950 . S
C829 C831 1.386 . A
C829 C832 1.399 . A
C832 C835 1.365 . A
C832 C836 1.490 . S
C833 H834 0.951 . S
C833 C835 1.399 . A
C835 H837 0.949 . S
C836 H838 0.989 . S
C836 H839 0.990 . S
C320 C203 1.162 . S
C329 C3 0.845 . S
C333 C23 1.109 . S
C342 C83 1.198 . S
C346 C63 1.103 . S
C355 C43 1.169 . S
C359 C283 1.122 . S
C368 C103 0.906 . S
C372 C123 1.114 . S
C381 C303 0.952 . S
C385 C263 1.112 . S
C394 C143 1.206 . S
C398 C163 1.166 . S
C407 C223 0.878 . S
C411 C183 1.152 . S
C420 C243 1.125 . S
C424 C19 1.812 . S
C433 C69 1.336 . S
C437 C149 1.718 . S
C446 C39 1.559 . S
C450 C59 1.818 . S
C459 C209 1.533 . S
C463 C79 1.811 . S
C472 C229 1.735 . S
C476 C99 1.802 . S
C485 C309 1.519 . S
C489 C119 1.816 . S
C498 C9 1.680 . S
C502 C29 1.762 . S
C511 C139 1.612 . S
C515 C159 1.815 . S
C524 C249 1.383 . S
C528 C179 1.818 . S
C537 C49 1.531 . S
C541 C269 1.695 . S
C550 C199 1.614 . S
C554 C219 1.812 . S
C563 C289 1.335 . S
C567 C239 1.813 . S
C576 C109 1.357 . S
C580 C129 1.731 . S
C589 C259 1.652 . S
C593 C279 1.802 . S
C602 C89 1.565 . S
C606 C299 1.818 . S
C615 C169 1.526 . S
C619 C319 1.814 . S
C628 C189 1.712 . S
C632 C148 1.355 . S
C641 C8 1.153 . S
C645 C28 1.398 . S
C654 C108 1.341 . S
C658 C48 1.389 . S
C667 C188 1.274 . S
C671 C68 1.346 . S
C680 C248 1.063 . S
C684 C288 1.352 . S
C693 C88 1.131 . S
C697 C128 1.380 . S
C706 C228 1.309 . S
C710 C308 1.350 . S
C719 C168 1.119 . S
C723 C208 1.399 . S
C732 C268 1.354 . S
C736 C50 0.701 . S
C745 C10 0.745 . S
C749 C270 0.689 . S
C758 C30 0.686 . S
C762 C70 0.704 . S
C771 C170 0.779 . S
C775 C90 0.706 . S
C784 C130 0.776 . S
C788 C110 0.701 . S
C797 C210 0.768 . S
C801 C150 0.703 . S
C810 C190 0.778 . S
C814 C290 0.708 . S
C823 C230 0.786 . S
C827 C250 0.695 . S
C836 C310 0.711 . S
