# Generated by pormake.
# Topology yfx, (5)-cn, num edge types: 1
# Building blocks:
#     Node 0, Type 0, BuildingBlock: N572, # of connection points: 5
#     Node 1, Type 0, BuildingBlock: N572, # of connection points: 5
#     Node 2, Type 0, BuildingBlock: N572, # of connection points: 5
#     Node 3, Type 0, BuildingBlock: N572, # of connection points: 5
#     Node 4, Type 0, BuildingBlock: N572, # of connection points: 5
#     Node 5, Type 0, BuildingBlock: N572, # of connection points: 5
#     Node 6, Type 0, BuildingBlock: N572, # of connection points: 5
#     Node 7, Type 0, BuildingBlock: N572, # of connection points: 5
#     Edge 8, Type (0, 0), BuildingBlock: E67, # of connection points: 2
#     Edge 9, Type (0, 0), BuildingBlock: E67, # of connection points: 2
#     Edge 10, Type (0, 0), BuildingBlock: E67, # of connection points: 2
#     Edge 11, Type (0, 0), BuildingBlock: E67, # of connection points: 2
#     Edge 12, Type (0, 0), BuildingBlock: E67, # of connection points: 2
#     Edge 13, Type (0, 0), BuildingBlock: E67, # of connection points: 2
#     Edge 14, Type (0, 0), BuildingBlock: E67, # of connection points: 2
#     Edge 15, Type (0, 0), BuildingBlock: E67, # of connection points: 2
#     Edge 16, Type (0, 0), BuildingBlock: E67, # of connection points: 2
#     Edge 17, Type (0, 0), BuildingBlock: E67, # of connection points: 2
#     Edge 18, Type (0, 0), BuildingBlock: E67, # of connection points: 2
#     Edge 19, Type (0, 0), BuildingBlock: E67, # of connection points: 2
#     Edge 20, Type (0, 0), BuildingBlock: E67, # of connection points: 2
#     Edge 21, Type (0, 0), BuildingBlock: E67, # of connection points: 2
#     Edge 22, Type (0, 0), BuildingBlock: E67, # of connection points: 2
#     Edge 23, Type (0, 0), BuildingBlock: E67, # of connection points: 2
#     Edge 24, Type (0, 0), BuildingBlock: E67, # of connection points: 2
#     Edge 25, Type (0, 0), BuildingBlock: E67, # of connection points: 2
#     Edge 26, Type (0, 0), BuildingBlock: E67, # of connection points: 2
#     Edge 27, Type (0, 0), BuildingBlock: E67, # of connection points: 2
# Relax obj value: 0.356
# Max RMSD: 0.234
# Mean RMSD: 0.234
data_yfx+N572+E67
_symmetry_space_group_name_H-M    P1
_symmetry_Int_Tables_number       1
_symmetry_cell_setting            triclinic
loop_
_symmetry_equiv_pos_as_xyz
'x, y, z'
_cell_length_a     22.900
_cell_length_b     22.900
_cell_length_c     18.796
_cell_angle_alpha  90.000
_cell_angle_beta   90.000
_cell_angle_gamma  90.000
loop_
_atom_site_label
_atom_site_type_symbol
_atom_site_fract_x
_atom_site_fract_y
_atom_site_fract_z
_atom_type_partial_charge
C0 C 0.41807 0.07998 0.53314 0.00000
O1 O 0.36374 0.08577 0.53648 0.00000
O2 O 0.44347 0.03231 0.54764 0.00000
Sm3 Sm 0.26346 0.10190 0.51754 0.00000
O4 O 0.28292 0.17869 0.59643 0.00000
O5 O 0.19401 0.02240 0.48978 0.00000
O6 O 0.28590 0.00010 0.47337 0.00000
C7 C 0.28527 0.19388 0.66105 0.00000
O8 O 0.25039 0.10588 0.38325 0.00000
O9 O 0.29812 0.17658 0.43682 0.00000
O10 O 0.17494 0.15134 0.51188 0.00000
O11 O 0.27090 0.16142 0.71177 0.00000
C12 C 0.27435 0.15558 0.38251 0.00000
O13 O 0.08329 0.16477 0.54384 0.00000
C14 C 0.23183 0.98935 0.46326 0.00000
C15 C 0.13152 0.18376 0.52052 0.00000
O16 O 0.24517 0.06482 0.63524 0.00000
C17 C 0.92002 0.41807 0.53314 0.00000
O18 O 0.91423 0.36374 0.53648 0.00000
O19 O 0.96769 0.44347 0.54764 0.00000
Sm20 Sm 0.89810 0.26346 0.51754 0.00000
O21 O 0.82131 0.28292 0.59643 0.00000
O22 O 0.97760 0.19401 0.48978 0.00000
O23 O 0.99990 0.28590 0.47337 0.00000
C24 C 0.80612 0.28527 0.66105 0.00000
O25 O 0.89412 0.25039 0.38325 0.00000
O26 O 0.82342 0.29812 0.43682 0.00000
O27 O 0.84866 0.17494 0.51188 0.00000
O28 O 0.83858 0.27090 0.71177 0.00000
C29 C 0.84442 0.27435 0.38251 0.00000
O30 O 0.83523 0.08329 0.54384 0.00000
C31 C 0.01065 0.23183 0.46326 0.00000
C32 C 0.81624 0.13152 0.52052 0.00000
O33 O 0.93518 0.24517 0.63524 0.00000
C34 C 0.42002 0.91807 0.03324 0.00000
O35 O 0.41423 0.86374 0.03658 0.00000
O36 O 0.46769 0.94347 0.04774 0.00000
Sm37 Sm 0.39810 0.76346 0.01764 0.00000
O38 O 0.32131 0.78293 0.09653 0.00000
O39 O 0.47760 0.69401 0.98988 0.00000
O40 O 0.49900 0.78590 0.97347 0.00000
C41 C 0.30612 0.78527 0.16115 0.00000
O42 O 0.39412 0.75039 0.88335 0.00000
O43 O 0.32342 0.79812 0.93692 0.00000
O44 O 0.34866 0.67494 0.01198 0.00000
O45 O 0.33859 0.77090 0.21187 0.00000
C46 C 0.34442 0.77435 0.88261 0.00000
O47 O 0.33523 0.58329 0.04394 0.00000
C48 C 0.51065 0.73183 0.96336 0.00000
C49 C 0.31624 0.63152 0.02062 0.00000
O50 O 0.43518 0.74517 0.13534 0.00000
C51 C 0.91807 0.57998 0.03324 0.00000
O52 O 0.86374 0.58577 0.03658 0.00000
O53 O 0.94347 0.53231 0.04774 0.00000
Sm54 Sm 0.76346 0.60190 0.01764 0.00000
O55 O 0.78292 0.67869 0.09653 0.00000
O56 O 0.69401 0.52240 0.98988 0.00000
O57 O 0.78590 0.50100 0.97347 0.00000
C58 C 0.78527 0.69388 0.16115 0.00000
O59 O 0.75039 0.60588 0.88335 0.00000
O60 O 0.79812 0.67658 0.93692 0.00000
O61 O 0.67494 0.65134 0.01198 0.00000
O62 O 0.77090 0.66142 0.21187 0.00000
C63 C 0.77435 0.65558 0.88261 0.00000
O64 O 0.58329 0.66477 0.04394 0.00000
C65 C 0.73183 0.48935 0.96336 0.00000
C66 C 0.63152 0.68376 0.02062 0.00000
O67 O 0.74517 0.56482 0.13534 0.00000
C68 C 0.57998 0.08193 0.03324 0.00000
O69 O 0.58577 0.13626 0.03658 0.00000
O70 O 0.53231 0.05653 0.04774 0.00000
Sm71 Sm 0.60190 0.23654 0.01764 0.00000
O72 O 0.67869 0.21708 0.09653 0.00000
O73 O 0.52240 0.30599 0.98988 0.00000
O74 O 0.50100 0.21410 0.97347 0.00000
C75 C 0.69388 0.21473 0.16115 0.00000
O76 O 0.60588 0.24961 0.88335 0.00000
O77 O 0.67658 0.20188 0.93692 0.00000
O78 O 0.65134 0.32506 0.01198 0.00000
O79 O 0.66142 0.22910 0.21187 0.00000
C80 C 0.65558 0.22565 0.88261 0.00000
O81 O 0.66477 0.41671 0.04394 0.00000
C82 C 0.48935 0.26817 0.96336 0.00000
C83 C 0.68376 0.36848 0.02062 0.00000
O84 O 0.56482 0.25483 0.13534 0.00000
C85 C 0.08193 0.42002 0.03324 0.00000
O86 O 0.13626 0.41423 0.03658 0.00000
O87 O 0.05653 0.46769 0.04774 0.00000
Sm88 Sm 0.23654 0.39810 0.01764 0.00000
O89 O 0.21708 0.32131 0.09653 0.00000
O90 O 0.30599 0.47760 0.98988 0.00000
O91 O 0.21410 0.49900 0.97347 0.00000
C92 C 0.21473 0.30612 0.16115 0.00000
O93 O 0.24961 0.39412 0.88335 0.00000
O94 O 0.20188 0.32342 0.93692 0.00000
O95 O 0.32506 0.34866 0.01198 0.00000
O96 O 0.22910 0.33858 0.21187 0.00000
C97 C 0.22565 0.34442 0.88261 0.00000
O98 O 0.41671 0.33523 0.04394 0.00000
C99 C 0.26817 0.51065 0.96336 0.00000
C100 C 0.36848 0.31624 0.02062 0.00000
O101 O 0.25483 0.43518 0.13534 0.00000
C102 C 0.58193 0.92002 0.53314 0.00000
O103 O 0.63626 0.91423 0.53648 0.00000
O104 O 0.55653 0.96769 0.54764 0.00000
Sm105 Sm 0.73654 0.89810 0.51754 0.00000
O106 O 0.71708 0.82131 0.59643 0.00000
O107 O 0.80599 0.97760 0.48978 0.00000
O108 O 0.71410 0.99990 0.47337 0.00000
C109 C 0.71473 0.80612 0.66105 0.00000
O110 O 0.74961 0.89412 0.38325 0.00000
O111 O 0.70188 0.82342 0.43682 0.00000
O112 O 0.82506 0.84866 0.51188 0.00000
O113 O 0.72910 0.83858 0.71177 0.00000
C114 C 0.72565 0.84442 0.38251 0.00000
O115 O 0.91671 0.83523 0.54384 0.00000
C116 C 0.76817 0.01065 0.46326 0.00000
C117 C 0.86848 0.81624 0.52052 0.00000
O118 O 0.75483 0.93518 0.63524 0.00000
C119 C 0.07998 0.58193 0.53314 0.00000
O120 O 0.08577 0.63626 0.53648 0.00000
O121 O 0.03231 0.55653 0.54764 0.00000
Sm122 Sm 0.10190 0.73654 0.51754 0.00000
O123 O 0.17869 0.71707 0.59643 0.00000
O124 O 0.02240 0.80599 0.48978 0.00000
O125 O 0.00010 0.71410 0.47337 0.00000
C126 C 0.19388 0.71473 0.66105 0.00000
O127 O 0.10588 0.74961 0.38325 0.00000
O128 O 0.17658 0.70188 0.43682 0.00000
O129 O 0.15134 0.82506 0.51188 0.00000
O130 O 0.16141 0.72910 0.71177 0.00000
C131 C 0.15558 0.72565 0.38251 0.00000
O132 O 0.16477 0.91671 0.54384 0.00000
C133 C 0.98935 0.76817 0.46326 0.00000
C134 C 0.18376 0.86848 0.52052 0.00000
O135 O 0.06482 0.75483 0.63524 0.00000
O136 O 0.21637 0.32247 0.34402 0.00000
O137 O 0.13723 0.33726 0.28965 0.00000
H138 H 0.06165 0.18361 0.51925 0.00000
H139 H 0.20407 0.27078 0.45359 0.00000
H140 H 0.05475 0.28031 0.34088 0.00000
N141 N 0.16426 0.31636 0.33806 0.00000
C142 C 0.04775 0.23068 0.43003 0.00000
C143 C 0.07957 0.20883 0.48715 0.00000
C144 C 0.13805 0.22416 0.49703 0.00000
C145 C 0.16520 0.26005 0.44786 0.00000
C146 C 0.13339 0.27963 0.39007 0.00000
C147 C 0.07511 0.26610 0.38000 0.00000
O148 O 0.59670 0.08551 0.38495 0.00000
O149 O 0.60227 0.16883 0.43214 0.00000
H150 H 0.83068 0.07117 0.50026 0.00000
H151 H 0.68719 0.03334 0.38618 0.00000
H152 H 0.69549 0.18322 0.49793 0.00000
N153 N 0.62355 0.12267 0.41660 0.00000
C154 C 0.76923 0.13427 0.50492 0.00000
C155 C 0.79372 0.08144 0.48391 0.00000
C156 C 0.76364 0.04355 0.43865 0.00000
C157 C 0.70786 0.05797 0.41638 0.00000
C158 C 0.68347 0.10971 0.43991 0.00000
C159 C 0.71288 0.14853 0.48343 0.00000
O160 O 0.33071 0.63658 0.74997 0.00000
O161 O 0.34585 0.71452 0.80672 0.00000
H162 H 0.26070 0.56068 0.03110 0.00000
H163 H 0.30686 0.55562 0.82495 0.00000
H164 H 0.31578 0.70697 0.93364 0.00000
N165 N 0.33196 0.66401 0.80476 0.00000
C166 C 0.28869 0.63849 0.99385 0.00000
C167 C 0.27498 0.57938 0.99073 0.00000
C168 C 0.28232 0.54767 0.92789 0.00000
C169 C 0.30165 0.57601 0.86725 0.00000
C170 C 0.31304 0.63522 0.87079 0.00000
C171 C 0.30735 0.66727 0.93277 0.00000
O172 O 0.53035 0.65490 0.19694 0.00000
O173 O 0.45167 0.65032 0.13899 0.00000
H174 H 0.61211 0.74172 0.92538 0.00000
H175 H 0.61309 0.67867 0.12486 0.00000
H176 H 0.46182 0.68999 0.01632 0.00000
N177 N 0.50307 0.66018 0.14239 0.00000
C178 C 0.53232 0.71669 0.95939 0.00000
C179 C 0.59228 0.72564 0.96389 0.00000
C180 C 0.62316 0.71085 0.02539 0.00000
C181 C 0.59327 0.68882 0.08350 0.00000
C182 C 0.53338 0.68222 0.07886 0.00000
C183 C 0.50204 0.69533 0.01802 0.00000
O184 O 0.88663 0.31727 0.92081 0.00000
O185 O 0.89896 0.39873 0.87078 0.00000
H186 H 0.66768 0.42769 0.99565 0.00000
H187 H 0.80098 0.31361 0.99352 0.00000
H188 H 0.81159 0.46286 0.88080 0.00000
N189 N 0.87068 0.36622 0.90713 0.00000
C190 C 0.73599 0.45505 0.93652 0.00000
C191 C 0.70507 0.41748 0.98078 0.00000
C192 C 0.72931 0.36463 0.00324 0.00000
C193 C 0.78411 0.34859 0.97909 0.00000
C194 C 0.81327 0.38558 0.93308 0.00000
C195 C 0.79073 0.43870 0.91136 0.00000
O196 O 0.36779 0.09163 0.02580 0.00000
O197 O 0.45083 0.08381 0.97835 0.00000
H198 H 0.41290 0.33537 0.96535 0.00000
H199 H 0.33920 0.19067 0.04634 0.00000
H200 H 0.48866 0.17904 0.93420 0.00000
N201 N 0.41094 0.11295 0.99990 0.00000
C202 C 0.45925 0.26222 0.94524 0.00000
C203 C 0.41356 0.29521 0.97284 0.00000
C204 C 0.36867 0.26893 0.01163 0.00000
C205 C 0.36868 0.20893 0.02061 0.00000
C206 C 0.41337 0.17669 0.99058 0.00000
C207 C 0.45897 0.20184 0.95331 0.00000
O208 O 0.77296 0.79471 0.30646 0.00000
O209 O 0.84890 0.78022 0.24560 0.00000
H210 H 0.94331 0.78423 0.53366 0.00000
H211 H 0.78905 0.78683 0.43183 0.00000
H212 H 0.93884 0.77843 0.31991 0.00000
N213 N 0.82470 0.78551 0.30186 0.00000
C214 C 0.95135 0.77904 0.42689 0.00000
C215 C 0.92203 0.78301 0.49151 0.00000
C216 C 0.86111 0.78522 0.49406 0.00000
C217 C 0.82963 0.78545 0.43119 0.00000
C218 C 0.85967 0.78359 0.36744 0.00000
C219 C 0.91989 0.78008 0.36359 0.00000
O220 O 0.37413 0.88827 0.32802 0.00000
O221 O 0.36551 0.80540 0.37570 0.00000
H222 H 0.17924 0.93569 0.51548 0.00000
H223 H 0.29694 0.95404 0.35851 0.00000
H224 H 0.28889 0.80381 0.46961 0.00000
N225 N 0.34944 0.85483 0.36746 0.00000
C226 C 0.22833 0.86355 0.50019 0.00000
C227 C 0.20912 0.92025 0.48771 0.00000
C228 C 0.23404 0.95435 0.43409 0.00000
C229 C 0.27984 0.93201 0.39448 0.00000
C230 C 0.29969 0.87634 0.40943 0.00000
C231 C 0.27488 0.84127 0.46115 0.00000
O232 O 0.14615 0.11041 0.74798 0.00000
O233 O 0.10273 0.16106 0.82525 0.00000
H234 H 0.30181 0.30948 0.75662 0.00000
H235 H 0.22537 0.16069 0.69206 0.00000
H236 H 0.15700 0.25195 0.85525 0.00000
N237 N 0.14130 0.15442 0.78278 0.00000
C238 C 0.22884 0.28997 0.81200 0.00000
C239 C 0.27179 0.28228 0.76054 0.00000
C240 C 0.27052 0.23433 0.71464 0.00000
C241 C 0.22697 0.19287 0.72216 0.00000
C242 C 0.18589 0.20022 0.77531 0.00000
C243 C 0.18548 0.24798 0.82036 0.00000
O244 O 0.59109 0.35341 0.62325 0.00000
O245 O 0.54142 0.32684 0.71194 0.00000
H246 H 0.77135 0.23447 0.78334 0.00000
H247 H 0.69343 0.33567 0.63676 0.00000
H248 H 0.59901 0.26634 0.79666 0.00000
N249 N 0.58705 0.33053 0.68087 0.00000
C250 C 0.68527 0.24611 0.80171 0.00000
C251 C 0.73804 0.25291 0.76603 0.00000
C252 C 0.74177 0.28702 0.70459 0.00000
C253 C 0.69179 0.31276 0.67755 0.00000
C254 C 0.63938 0.30375 0.71237 0.00000
C255 C 0.63481 0.27125 0.77414 0.00000
O256 O 0.04266 0.21980 0.29841 0.00000
O257 O 0.07603 0.17869 0.39015 0.00000
H258 H 0.28954 0.23074 0.23347 0.00000
H259 H 0.11686 0.26094 0.22417 0.00000
H260 H 0.18393 0.16628 0.38528 0.00000
N261 N 0.08304 0.20351 0.33456 0.00000
C262 C 0.24530 0.19599 0.31616 0.00000
C263 C 0.25241 0.22684 0.25302 0.00000
C264 C 0.20463 0.25203 0.21851 0.00000
C265 C 0.14918 0.24445 0.24635 0.00000
C266 C 0.14280 0.21186 0.30778 0.00000
C267 C 0.18956 0.18760 0.34376 0.00000
O268 O 0.39260 0.65024 0.25302 0.00000
O269 O 0.34223 0.60666 0.33043 0.00000
H270 H 0.18952 0.80079 0.25503 0.00000
H271 H 0.34093 0.72730 0.19455 0.00000
H272 H 0.24964 0.65899 0.35777 0.00000
N273 N 0.34835 0.64476 0.28722 0.00000
C274 C 0.21028 0.72918 0.31233 0.00000
C275 C 0.21744 0.77155 0.26004 0.00000
C276 C 0.26591 0.77085 0.21495 0.00000
C277 C 0.30839 0.72850 0.22410 0.00000
C278 C 0.30150 0.68804 0.27803 0.00000
C279 C 0.25327 0.68705 0.32231 0.00000
O280 O 0.72169 0.91133 0.84960 0.00000
O281 O 0.76598 0.86745 0.93211 0.00000
H282 H 0.73370 0.68026 0.72554 0.00000
H283 H 0.71026 0.85345 0.74459 0.00000
H284 H 0.77716 0.76119 0.90786 0.00000
N285 N 0.74448 0.86820 0.87389 0.00000
C286 C 0.76020 0.71187 0.82046 0.00000
C287 C 0.73709 0.71438 0.75210 0.00000
C288 C 0.71890 0.76737 0.72275 0.00000
C289 C 0.72211 0.81776 0.76325 0.00000
C290 C 0.74326 0.81399 0.83198 0.00000
C291 C 0.76274 0.76227 0.86165 0.00000
O292 O 0.95231 0.15289 0.24245 0.00000
O293 O 0.90920 0.12258 0.15050 0.00000
H294 H 0.72806 0.26481 0.28280 0.00000
H295 H 0.89775 0.22469 0.30669 0.00000
H296 H 0.80530 0.15424 0.14581 0.00000
N297 N 0.91037 0.15164 0.20362 0.00000
C298 C 0.75812 0.21017 0.20689 0.00000
C299 C 0.76130 0.24528 0.26714 0.00000
C300 C 0.81364 0.25164 0.30449 0.00000
C301 C 0.86251 0.22096 0.28255 0.00000
C302 C 0.85791 0.18466 0.22405 0.00000
C303 C 0.80693 0.17865 0.18527 0.00000
O304 O 0.87163 0.63398 0.36944 0.00000
O305 O 0.83005 0.67483 0.45624 0.00000
H306 H 0.73911 0.80932 0.21726 0.00000
H307 H 0.83689 0.66722 0.25647 0.00000
H308 H 0.77043 0.76047 0.41917 0.00000
N309 N 0.83802 0.66945 0.39348 0.00000
C310 C 0.74755 0.79188 0.32203 0.00000
C311 C 0.75574 0.78332 0.24946 0.00000
C312 C 0.78856 0.73627 0.22422 0.00000
C313 C 0.81493 0.69881 0.27227 0.00000
C314 C 0.80800 0.70930 0.34421 0.00000
C315 C 0.77466 0.75481 0.37047 0.00000
O316 O 0.34173 0.55303 0.73943 0.00000
O317 O 0.38511 0.58305 0.83134 0.00000
H318 H 0.25102 0.78885 0.74959 0.00000
H319 H 0.27040 0.62023 0.69538 0.00000
H320 H 0.36527 0.68801 0.85587 0.00000
N321 N 0.35116 0.59019 0.78348 0.00000
C322 C 0.30913 0.74614 0.81136 0.00000
C323 C 0.26830 0.75260 0.75715 0.00000
C324 C 0.25288 0.70547 0.71388 0.00000
C325 C 0.28013 0.65211 0.72362 0.00000
C326 C 0.32211 0.64715 0.77612 0.00000
C327 C 0.33718 0.69281 0.82066 0.00000
O328 O 0.35917 0.85892 0.52781 0.00000
O329 O 0.30981 0.93605 0.51641 0.00000
H330 H 0.54682 0.02828 0.53158 0.00000
H331 H 0.46223 0.87481 0.52054 0.00000
H332 H 0.37140 0.02546 0.52261 0.00000
N333 N 0.35580 0.91121 0.52113 0.00000
C334 C 0.45928 0.03728 0.52522 0.00000
C335 C 0.51210 0.00738 0.52794 0.00000
C336 C 0.51378 0.94645 0.52532 0.00000
C337 C 0.46198 0.91539 0.52240 0.00000
C338 C 0.40986 0.94586 0.52231 0.00000
C339 C 0.40712 0.00619 0.52328 0.00000
O340 O 0.85900 0.64070 0.53501 0.00000
O341 O 0.93599 0.69030 0.52373 0.00000
H342 H 0.02835 0.45306 0.52954 0.00000
H343 H 0.87478 0.53783 0.52413 0.00000
H344 H 0.02546 0.62861 0.52625 0.00000
N345 N 0.91121 0.64422 0.52744 0.00000
C346 C 0.03728 0.54071 0.52581 0.00000
C347 C 0.00742 0.48785 0.52741 0.00000
C348 C 0.94646 0.48621 0.52590 0.00000
C349 C 0.91537 0.53805 0.52523 0.00000
C350 C 0.94585 0.59015 0.52623 0.00000
C351 C 0.00618 0.59289 0.52614 0.00000
O352 O 0.38250 0.10102 0.17795 0.00000
O353 O 0.45696 0.15490 0.17165 0.00000
H354 H 0.52356 0.96114 0.98747 0.00000
H355 H 0.38500 0.02057 0.09684 0.00000
H356 H 0.53637 0.11019 0.09949 0.00000
N357 N 0.43020 0.11216 0.15428 0.00000
C358 C 0.53922 0.03743 0.03779 0.00000
C359 C 0.50648 0.98942 0.01631 0.00000
C360 C 0.44835 0.98301 0.03740 0.00000
C361 C 0.42365 0.02407 0.08230 0.00000
C362 C 0.45757 0.07037 0.10511 0.00000
C363 C 0.51480 0.07835 0.08369 0.00000
O364 O 0.13973 0.64043 0.05239 0.00000
O365 O 0.18991 0.56378 0.04144 0.00000
H366 H 0.95295 0.47159 0.02471 0.00000
H367 H 0.03765 0.62511 0.03288 0.00000
H368 H 0.12832 0.47437 0.03511 0.00000
N369 N 0.14370 0.58849 0.04272 0.00000
C370 C 0.04063 0.46267 0.02735 0.00000
C371 C 0.98776 0.49253 0.02623 0.00000
C372 C 0.98613 0.55350 0.02738 0.00000
C373 C 0.03786 0.58452 0.03213 0.00000
C374 C 0.08985 0.55397 0.03576 0.00000
C375 C 0.09265 0.49368 0.03312 0.00000
loop_
_geom_bond_atom_site_label_1
_geom_bond_atom_site_label_2
_geom_bond_distance
_geom_bond_site_symmetry_2
_ccdc_geom_bond_type
C0 O1 1.253 . S
C0 O2 1.267 . D
O1 Sm3 2.353 . S
Sm3 O4 2.343 . S
Sm3 O5 2.473 . S
Sm3 O6 2.527 . S
Sm3 O8 2.544 . S
Sm3 O9 2.420 . S
Sm3 O10 2.324 . S
Sm3 O16 2.406 . S
O4 C7 1.265 . S
O5 C14 1.254 1_545 A
O6 C14 1.277 1_545 A
C7 O11 1.253 . D
O8 C12 1.264 . A
O9 C12 1.253 . A
O10 C15 1.251 . S
O13 C15 1.265 . D
C17 O18 1.253 . S
C17 O19 1.267 . D
O18 Sm20 2.353 . S
Sm20 O21 2.343 . S
Sm20 O22 2.473 . S
Sm20 O23 2.527 . S
Sm20 O25 2.544 . S
Sm20 O26 2.420 . S
Sm20 O27 2.324 . S
Sm20 O33 2.406 . S
O21 C24 1.265 . S
O22 C31 1.254 1_655 A
O23 C31 1.277 1_655 A
C24 O28 1.253 . D
O25 C29 1.264 . A
O26 C29 1.253 . A
O27 C32 1.251 . S
O30 C32 1.265 . D
C34 O35 1.253 . S
C34 O36 1.267 . D
O35 Sm37 2.353 . S
Sm37 O38 2.343 . S
Sm37 O39 2.473 1_554 S
Sm37 O40 2.509 1_554 S
Sm37 O42 2.544 1_554 S
Sm37 O43 2.420 1_554 S
Sm37 O44 2.324 . S
Sm37 O50 2.406 . S
O38 C41 1.265 . S
O39 C48 1.254 . A
O40 C48 1.281 . A
C41 O45 1.253 . D
O42 C46 1.264 . A
O43 C46 1.253 . A
O44 C49 1.251 . S
O47 C49 1.265 . D
C51 O52 1.253 . S
C51 O53 1.267 . D
O52 Sm54 2.353 . S
Sm54 O55 2.343 . S
Sm54 O56 2.473 1_554 S
Sm54 O57 2.509 1_554 S
Sm54 O59 2.544 1_554 S
Sm54 O60 2.420 1_554 S
Sm54 O61 2.324 . S
Sm54 O67 2.406 . S
O55 C58 1.265 . S
O56 C65 1.254 . A
O57 C65 1.281 . A
C58 O62 1.253 . D
O59 C63 1.264 . A
O60 C63 1.253 . A
O61 C66 1.251 . S
O64 C66 1.265 . D
C68 O69 1.253 . S
C68 O70 1.267 . D
O69 Sm71 2.353 . S
Sm71 O72 2.343 . S
Sm71 O73 2.473 1_554 S
Sm71 O74 2.509 1_554 S
Sm71 O76 2.544 1_554 S
Sm71 O77 2.420 1_554 S
Sm71 O78 2.324 . S
Sm71 O84 2.406 . S
O72 C75 1.265 . S
O73 C82 1.254 . A
O74 C82 1.281 . A
C75 O79 1.253 . D
O76 C80 1.264 . A
O77 C80 1.253 . A
O78 C83 1.251 . S
O81 C83 1.265 . D
C85 O86 1.253 . S
C85 O87 1.267 . D
O86 Sm88 2.353 . S
Sm88 O89 2.343 . S
Sm88 O90 2.473 1_554 S
Sm88 O91 2.509 1_554 S
Sm88 O93 2.544 1_554 S
Sm88 O94 2.420 1_554 S
Sm88 O95 2.324 . S
Sm88 O101 2.406 . S
O89 C92 1.265 . S
O90 C99 1.254 . A
O91 C99 1.281 . A
C92 O96 1.253 . D
O93 C97 1.264 . A
O94 C97 1.253 . A
O95 C100 1.251 . S
O98 C100 1.265 . D
C102 O103 1.253 . S
C102 O104 1.267 . D
O103 Sm105 2.353 . S
Sm105 O106 2.343 . S
Sm105 O107 2.473 . S
Sm105 O108 2.527 . S
Sm105 O110 2.544 . S
Sm105 O111 2.420 . S
Sm105 O112 2.324 . S
Sm105 O118 2.406 . S
O106 C109 1.265 . S
O107 C116 1.254 1_565 A
O108 C116 1.277 1_565 A
C109 O113 1.253 . D
O110 C114 1.264 . A
O111 C114 1.253 . A
O112 C117 1.251 . S
O115 C117 1.265 . D
C119 O120 1.253 . S
C119 O121 1.267 . D
O120 Sm122 2.353 . S
Sm122 O123 2.343 . S
Sm122 O124 2.473 . S
Sm122 O125 2.527 . S
Sm122 O127 2.544 . S
Sm122 O128 2.420 . S
Sm122 O129 2.324 . S
Sm122 O135 2.406 . S
O123 C126 1.265 . S
O124 C133 1.254 1_455 A
O125 C133 1.277 1_455 A
C126 O130 1.253 . D
O127 C131 1.264 . A
O128 C131 1.253 . A
O129 C134 1.251 . S
O132 C134 1.265 . D
O136 N141 1.207 . A
O137 N141 1.200 . A
H138 C143 0.931 . S
H139 C145 0.930 . S
H140 C147 0.929 . S
N141 C146 1.471 . S
C142 C143 1.391 . A
C142 C147 1.391 . A
C143 C144 1.397 . A
C144 C145 1.384 . A
C145 C146 1.382 . A
C146 C147 1.383 . A
O148 N153 1.207 . A
O149 N153 1.200 . A
H150 C155 0.931 . S
H151 C157 0.930 . S
H152 C159 0.929 . S
N153 C158 1.471 . S
C154 C155 1.391 . A
C154 C159 1.391 . A
C155 C156 1.397 . A
C156 C157 1.384 . A
C157 C158 1.382 . A
C158 C159 1.383 . A
O160 N165 1.207 . A
O161 N165 1.200 . A
H162 C167 0.931 1_554 S
H163 C169 0.930 . S
H164 C171 0.929 . S
N165 C170 1.471 . S
C166 C167 1.391 . A
C166 C171 1.391 . A
C167 C168 1.397 . A
C168 C169 1.384 . A
C169 C170 1.382 . A
C170 C171 1.383 . A
O172 N177 1.207 . A
O173 N177 1.200 . A
H174 C179 0.931 . S
H175 C181 0.930 . S
H176 C183 0.929 . S
N177 C182 1.471 . S
C178 C179 1.391 . A
C178 C183 1.391 1_556 A
C179 C180 1.397 1_556 A
C180 C181 1.384 . A
C181 C182 1.382 . A
C182 C183 1.383 . A
O184 N189 1.207 . A
O185 N189 1.200 . A
H186 C191 0.931 . S
H187 C193 0.930 . S
H188 C195 0.929 . S
N189 C194 1.471 . S
C190 C191 1.391 . A
C190 C195 1.391 . A
C191 C192 1.397 1_556 A
C192 C193 1.384 1_554 A
C193 C194 1.382 . A
C194 C195 1.383 . A
O196 N201 1.205 1_554 A
O197 N201 1.202 . A
H198 C203 0.931 . S
H199 C205 0.930 . S
H200 C207 0.929 . S
N201 C206 1.471 . S
C202 C203 1.391 . A
C202 C207 1.391 . A
C203 C204 1.397 1_556 A
C204 C205 1.384 . A
C205 C206 1.382 1_554 A
C206 C207 1.383 . A
O208 N213 1.207 . A
O209 N213 1.200 . A
H210 C215 0.931 . S
H211 C217 0.930 . S
H212 C219 0.929 . S
N213 C218 1.471 . S
C214 C215 1.391 . A
C214 C219 1.391 . A
C215 C216 1.397 . A
C216 C217 1.384 . A
C217 C218 1.382 . A
C218 C219 1.383 . A
O220 N225 1.207 . A
O221 N225 1.200 . A
H222 C227 0.931 . S
H223 C229 0.930 . S
H224 C231 0.929 . S
N225 C230 1.471 . S
C226 C227 1.391 . A
C226 C231 1.391 . A
C227 C228 1.397 . A
C228 C229 1.384 . A
C229 C230 1.382 . A
C230 C231 1.383 . A
O232 N237 1.207 . A
O233 N237 1.200 . A
H234 C239 0.931 . S
H235 C241 0.930 . S
H236 C243 0.929 . S
N237 C242 1.471 . S
C238 C239 1.391 . A
C238 C243 1.391 . A
C239 C240 1.397 . A
C240 C241 1.384 . A
C241 C242 1.382 . A
C242 C243 1.383 . A
O244 N249 1.207 . A
O245 N249 1.200 . A
H246 C251 0.931 . S
H247 C253 0.930 . S
H248 C255 0.929 . S
N249 C254 1.471 . S
C250 C251 1.391 . A
C250 C255 1.391 . A
C251 C252 1.397 . A
C252 C253 1.384 . A
C253 C254 1.382 . A
C254 C255 1.383 . A
O256 N261 1.207 . A
O257 N261 1.200 . A
H258 C263 0.931 . S
H259 C265 0.930 . S
H260 C267 0.929 . S
N261 C266 1.471 . S
C262 C263 1.391 . A
C262 C267 1.391 . A
C263 C264 1.397 . A
C264 C265 1.384 . A
C265 C266 1.382 . A
C266 C267 1.383 . A
O268 N273 1.207 . A
O269 N273 1.200 . A
H270 C275 0.931 . S
H271 C277 0.930 . S
H272 C279 0.929 . S
N273 C278 1.471 . S
C274 C275 1.391 . A
C274 C279 1.391 . A
C275 C276 1.397 . A
C276 C277 1.384 . A
C277 C278 1.382 . A
C278 C279 1.383 . A
O280 N285 1.207 . A
O281 N285 1.200 . A
H282 C287 0.931 . S
H283 C289 0.930 . S
H284 C291 0.929 . S
N285 C290 1.471 . S
C286 C287 1.391 . A
C286 C291 1.391 . A
C287 C288 1.397 . A
C288 C289 1.384 . A
C289 C290 1.382 . A
C290 C291 1.383 . A
O292 N297 1.207 . A
O293 N297 1.200 . A
H294 C299 0.931 . S
H295 C301 0.930 . S
H296 C303 0.929 . S
N297 C302 1.471 . S
C298 C299 1.391 . A
C298 C303 1.391 . A
C299 C300 1.397 . A
C300 C301 1.384 . A
C301 C302 1.382 . A
C302 C303 1.383 . A
O304 N309 1.207 . A
O305 N309 1.200 . A
H306 C311 0.931 . S
H307 C313 0.930 . S
H308 C315 0.929 . S
N309 C314 1.471 . S
C310 C311 1.391 . A
C310 C315 1.391 . A
C311 C312 1.397 . A
C312 C313 1.384 . A
C313 C314 1.382 . A
C314 C315 1.383 . A
O316 N321 1.207 . A
O317 N321 1.200 . A
H318 C323 0.931 . S
H319 C325 0.930 . S
H320 C327 0.929 . S
N321 C326 1.471 . S
C322 C323 1.391 . A
C322 C327 1.391 . A
C323 C324 1.397 . A
C324 C325 1.384 . A
C325 C326 1.382 . A
C326 C327 1.383 . A
O328 N333 1.207 . A
O329 N333 1.200 . A
H330 C335 0.931 . S
H331 C337 0.930 . S
H332 C339 0.929 . S
N333 C338 1.471 . S
C334 C335 1.391 . A
C334 C339 1.391 . A
C335 C336 1.397 1_545 A
C336 C337 1.384 . A
C337 C338 1.382 . A
C338 C339 1.383 1_565 A
O340 N345 1.207 . A
O341 N345 1.200 . A
H342 C347 0.931 . S
H343 C349 0.930 . S
H344 C351 0.929 . S
N345 C350 1.471 . S
C346 C347 1.391 . A
C346 C351 1.391 . A
C347 C348 1.397 1_455 A
C348 C349 1.384 . A
C349 C350 1.382 . A
C350 C351 1.383 1_655 A
O352 N357 1.207 . A
O353 N357 1.200 . A
H354 C359 0.931 1_556 S
H355 C361 0.930 . S
H356 C363 0.929 . S
N357 C362 1.471 . S
C358 C359 1.391 1_545 A
C358 C363 1.391 . A
C359 C360 1.397 . A
C360 C361 1.384 1_565 A
C361 C362 1.382 . A
C362 C363 1.383 . A
O364 N369 1.207 . A
O365 N369 1.200 . A
H366 C371 0.931 . S
H367 C373 0.930 . S
H368 C375 0.929 . S
N369 C374 1.471 . S
C370 C371 1.391 1_455 A
C370 C375 1.391 . A
C371 C372 1.397 . A
C372 C373 1.384 1_655 A
C373 C374 1.382 . A
C374 C375 1.383 . A
C142 C31 1.055 . S
C144 C15 1.036 . S
C154 C32 1.118 . S
C156 C116 0.890 . S
C166 C49 0.823 1_556 S
C168 C99 1.126 . S
C178 C48 0.610 . S
C180 C66 0.655 . S
C190 C65 0.938 . S
C192 C83 1.097 . S
C202 C82 0.781 . S
C204 C100 1.097 . S
C214 C133 1.134 . S
C216 C117 0.883 . S
C226 C134 1.096 . S
C228 C14 0.972 . S
C238 C97 1.823 . S
C240 C7 1.409 . S
C250 C80 1.730 . S
C252 C24 1.686 . S
C262 C12 1.689 . S
C264 C92 1.658 . S
C274 C131 1.821 . S
C276 C41 1.407 . S
C286 C63 1.770 . S
C288 C109 1.463 . S
C298 C75 1.707 . S
C300 C29 1.708 . S
C310 C114 1.730 . S
C312 C58 1.534 . S
C322 C46 1.692 . S
C324 C126 1.690 . S
C334 C0 1.367 . S
C336 C102 1.680 . S
C346 C119 1.366 . S
C348 C17 1.679 . S
C358 C68 1.384 . S
C360 C34 1.624 . S
C370 C85 1.364 . S
C372 C51 1.676 . S
