# Generated by pormake.
# Topology zzz, (3,6)-cn, num edge types: 1
# Building blocks:
#     Node 0, Type 0, BuildingBlock: N164, # of connection points: 4
#     Node 1, Type 0, BuildingBlock: N164, # of connection points: 4
#     Node 2, Type 0, BuildingBlock: N164, # of connection points: 4
#     Node 3, Type 0, BuildingBlock: N164, # of connection points: 4
#     Node 4, Type 0, BuildingBlock: N164, # of connection points: 4
#     Node 5, Type 0, BuildingBlock: N164, # of connection points: 4
#     Node 6, Type 0, BuildingBlock: N164, # of connection points: 4
#     Node 7, Type 0, BuildingBlock: N164, # of connection points: 4
#     Node 8, Type 1, BuildingBlock: N275, # of connection points: 12
#     Node 9, Type 1, BuildingBlock: N275, # of connection points: 12
#     Node 10, Type 1, BuildingBlock: N275, # of connection points: 12
#     Node 11, Type 1, BuildingBlock: N275, # of connection points: 12
#     Edge 12, Type (0, 1), BuildingBlock: E150, # of connection points: 2
#     Edge 13, Type (0, 1), BuildingBlock: E150, # of connection points: 2
#     Edge 14, Type (0, 1), BuildingBlock: E150, # of connection points: 2
#     Edge 15, Type (0, 1), BuildingBlock: E150, # of connection points: 2
#     Edge 16, Type (0, 1), BuildingBlock: E150, # of connection points: 2
#     Edge 17, Type (0, 1), BuildingBlock: E150, # of connection points: 2
#     Edge 18, Type (0, 1), BuildingBlock: E150, # of connection points: 2
#     Edge 19, Type (0, 1), BuildingBlock: E150, # of connection points: 2
#     Edge 20, Type (0, 1), BuildingBlock: E150, # of connection points: 2
#     Edge 21, Type (0, 1), BuildingBlock: E150, # of connection points: 2
#     Edge 22, Type (0, 1), BuildingBlock: E150, # of connection points: 2
#     Edge 23, Type (0, 1), BuildingBlock: E150, # of connection points: 2
#     Edge 24, Type (0, 1), BuildingBlock: E150, # of connection points: 2
#     Edge 25, Type (0, 1), BuildingBlock: E150, # of connection points: 2
#     Edge 26, Type (0, 1), BuildingBlock: E150, # of connection points: 2
#     Edge 27, Type (0, 1), BuildingBlock: E150, # of connection points: 2
#     Edge 28, Type (0, 1), BuildingBlock: E150, # of connection points: 2
#     Edge 29, Type (0, 1), BuildingBlock: E150, # of connection points: 2
#     Edge 30, Type (0, 1), BuildingBlock: E150, # of connection points: 2
#     Edge 31, Type (0, 1), BuildingBlock: E150, # of connection points: 2
#     Edge 32, Type (0, 1), BuildingBlock: E150, # of connection points: 2
#     Edge 33, Type (0, 1), BuildingBlock: E150, # of connection points: 2
#     Edge 34, Type (0, 1), BuildingBlock: E150, # of connection points: 2
#     Edge 35, Type (0, 1), BuildingBlock: E150, # of connection points: 2
# Relax obj value: 0.067
# Max RMSD: 0.288
# Mean RMSD: 0.213
data_zzz+N164+N275+E150
_symmetry_space_group_name_H-M    P1
_symmetry_Int_Tables_number       1
_symmetry_cell_setting            triclinic
loop_
_symmetry_equiv_pos_as_xyz
'x, y, z'
_cell_length_a     50.588
_cell_length_b     49.264
_cell_length_c     18.514
_cell_angle_alpha  89.746
_cell_angle_beta   90.617
_cell_angle_gamma  88.908
loop_
_atom_site_label
_atom_site_type_symbol
_atom_site_fract_x
_atom_site_fract_y
_atom_site_fract_z
_atom_type_partial_charge
O0 O 0.56780 0.71645 0.95619 0.00000
O1 O 0.60968 0.71687 0.93129 0.00000
O2 O 0.63866 0.74804 0.04004 0.00000
O3 O 0.61064 0.77153 0.10347 0.00000
In4 In 0.59398 0.74395 0.01980 0.00000
C5 C 0.58186 0.71448 0.13419 0.00000
O6 O 0.56508 0.77806 0.99686 0.00000
O7 O 0.60158 0.77693 0.93575 0.00000
C8 C 0.58709 0.70694 0.92274 0.00000
O9 O 0.56585 0.73390 0.11940 0.00000
O10 O 0.60061 0.70933 0.09232 0.00000
C11 C 0.63390 0.76456 0.08916 0.00000
C12 C 0.58036 0.78876 0.95285 0.00000
O13 O 0.29115 0.51808 0.11199 0.00000
O14 O 0.28763 0.55596 0.05170 0.00000
O15 O 0.24769 0.55167 0.93642 0.00000
O16 O 0.22436 0.51585 0.95521 0.00000
In17 In 0.25789 0.52312 0.03175 0.00000
C18 C 0.28014 0.48241 0.96041 0.00000
O19 O 0.23000 0.50973 0.11758 0.00000
O20 O 0.23087 0.55284 0.09190 0.00000
C21 C 0.30020 0.54056 0.09502 0.00000
O22 O 0.26432 0.47556 0.00967 0.00000
O23 O 0.28562 0.50696 0.95240 0.00000
C24 C 0.22932 0.53651 0.91869 0.00000
C25 C 0.22086 0.53331 0.12498 0.00000
O26 O 0.94273 0.78404 0.94511 0.00000
O27 O 0.90084 0.78365 0.91785 0.00000
O28 O 0.87192 0.75224 0.02525 0.00000
O29 O 0.89998 0.72864 0.09049 0.00000
In30 In 0.91660 0.75639 0.00750 0.00000
C31 C 0.92873 0.78564 0.12231 0.00000
O32 O 0.94550 0.72235 0.98651 0.00000
O33 O 0.90898 0.72359 0.92332 0.00000
C34 C 0.92342 0.79361 0.91048 0.00000
O35 O 0.94475 0.76627 0.10860 0.00000
O36 O 0.90997 0.79087 0.07933 0.00000
C37 C 0.87671 0.73562 0.07480 0.00000
C38 C 0.93021 0.71173 0.94172 0.00000
O39 O 0.73144 0.03003 0.97678 0.00000
O40 O 0.73349 0.98703 0.95122 0.00000
O41 O 0.76529 0.95736 0.06021 0.00000
O42 O 0.78717 0.98619 0.12464 0.00000
In43 In 0.75944 0.00323 0.04060 0.00000
C44 C 0.73052 0.01559 0.15452 0.00000
O45 O 0.79142 0.03298 0.01892 0.00000
O46 O 0.79166 0.99550 0.95718 0.00000
C47 C 0.72288 0.01019 0.94280 0.00000
O48 O 0.74874 0.03208 0.14044 0.00000
O49 O 0.72616 0.99633 0.11223 0.00000
C50 C 0.78130 0.96229 0.10979 0.00000
C51 C 0.80235 0.01732 0.97489 0.00000
O52 O 0.72058 0.47164 0.96160 0.00000
O53 O 0.72268 0.50953 0.02096 0.00000
O54 O 0.76277 0.50524 0.13636 0.00000
O55 O 0.78744 0.46941 0.11846 0.00000
In56 In 0.75364 0.47669 0.04172 0.00000
C57 C 0.73290 0.43598 0.11407 0.00000
O58 O 0.78204 0.46329 0.95624 0.00000
O59 O 0.77956 0.50641 0.98085 0.00000
C60 C 0.71069 0.49412 0.97801 0.00000
O61 O 0.74898 0.42913 0.06498 0.00000
O62 O 0.72651 0.46052 0.12147 0.00000
C63 C 0.78171 0.49008 0.15447 0.00000
C64 C 0.79030 0.48688 0.94825 0.00000
O65 O 0.12760 0.21483 0.13028 0.00000
O66 O 0.08570 0.21687 0.15505 0.00000
O67 O 0.05679 0.24941 0.04594 0.00000
O68 O 0.08484 0.27191 0.98236 0.00000
In69 In 0.10146 0.24350 0.06634 0.00000
C70 C 0.11360 0.21377 0.95225 0.00000
O71 O 0.13036 0.27641 0.08904 0.00000
O72 O 0.09384 0.27661 0.15006 0.00000
C73 C 0.10829 0.20601 0.16377 0.00000
O74 O 0.12962 0.23252 0.96691 0.00000
O75 O 0.09483 0.20928 0.99412 0.00000
C76 C 0.06158 0.26583 0.99667 0.00000
C77 C 0.11508 0.28762 0.13292 0.00000
O78 O 0.27898 0.03023 0.09585 0.00000
O79 O 0.27853 0.98722 0.12248 0.00000
O80 O 0.24783 0.95756 0.01423 0.00000
O81 O 0.22487 0.98639 0.94909 0.00000
In82 In 0.25198 0.00343 0.03270 0.00000
C83 C 0.28043 0.01579 0.91847 0.00000
O84 O 0.21889 0.03318 0.05367 0.00000
O85 O 0.22005 0.99569 0.11633 0.00000
C86 C 0.28828 0.01039 0.13032 0.00000
O87 O 0.26160 0.03228 0.93215 0.00000
O88 O 0.28550 0.99653 0.96124 0.00000
C89 C 0.23164 0.96249 0.96453 0.00000
C90 C 0.20854 0.01752 0.09808 0.00000
O91 O 0.38490 0.28475 0.11536 0.00000
O92 O 0.42679 0.28269 0.14274 0.00000
O93 O 0.45576 0.25038 0.03572 0.00000
O94 O 0.42775 0.22799 0.97062 0.00000
In95 In 0.41108 0.25622 0.05330 0.00000
C96 C 0.39897 0.28617 0.93819 0.00000
O97 O 0.38219 0.22325 0.07453 0.00000
O98 O 0.41869 0.22295 0.13781 0.00000
C99 C 0.40420 0.29351 0.14995 0.00000
O100 O 0.38296 0.26738 0.95203 0.00000
O101 O 0.41772 0.29058 0.98117 0.00000
C102 C 0.45100 0.23405 0.98631 0.00000
C103 C 0.39747 0.21195 0.11946 0.00000
U104 U 0.98318 0.46965 0.64092 0.00000
U105 U 0.02838 0.53038 0.43261 0.00000
U106 U 0.96289 0.53387 0.53480 0.00000
U107 U 0.04866 0.46616 0.53873 0.00000
U108 U 0.98290 0.46901 0.43383 0.00000
U109 U 0.02865 0.53103 0.63970 0.00000
C110 C 0.00612 0.50081 0.79133 0.00000
C111 C 0.94987 0.42457 0.53826 0.00000
C112 C 0.06168 0.57546 0.53526 0.00000
C113 C 0.00544 0.49923 0.28220 0.00000
C114 C 0.98084 0.57896 0.40631 0.00000
C115 C 0.92527 0.50431 0.66238 0.00000
C116 C 0.08628 0.49573 0.41115 0.00000
C117 C 0.03072 0.42107 0.66721 0.00000
C118 C 0.03038 0.42028 0.41265 0.00000
C119 C 0.92493 0.50352 0.40781 0.00000
C120 C 0.08662 0.49652 0.66571 0.00000
C121 C 0.98118 0.57975 0.66088 0.00000
O122 O 0.99260 0.48252 0.76137 0.00000
O123 O 0.95661 0.43375 0.59946 0.00000
O124 O 0.05494 0.56628 0.47406 0.00000
O125 O 0.01896 0.51751 0.31216 0.00000
O126 O 0.96440 0.57059 0.45214 0.00000
O127 O 0.92885 0.52283 0.61596 0.00000
O128 O 0.08270 0.47720 0.45756 0.00000
O129 O 0.04716 0.42944 0.62139 0.00000
O130 O 0.00795 0.43062 0.39634 0.00000
O131 O 0.94049 0.48387 0.39324 0.00000
O132 O 0.07106 0.51616 0.68028 0.00000
O133 O 0.00360 0.56941 0.67719 0.00000
O134 O 0.07068 0.51527 0.39465 0.00000
O135 O 0.00322 0.56852 0.39156 0.00000
O136 O 0.00834 0.43151 0.68196 0.00000
O137 O 0.94088 0.48476 0.67887 0.00000
O138 O 0.95645 0.43337 0.47670 0.00000
O139 O 0.99200 0.48113 0.31288 0.00000
O140 O 0.01956 0.51891 0.76064 0.00000
O141 O 0.05510 0.56667 0.59682 0.00000
O142 O 0.96461 0.57110 0.61500 0.00000
O143 O 0.92863 0.52232 0.45310 0.00000
O144 O 0.08292 0.47771 0.62043 0.00000
O145 O 0.04694 0.42894 0.45852 0.00000
O146 O 0.96363 0.48689 0.53641 0.00000
O147 O 0.02636 0.48418 0.63647 0.00000
O148 O 0.02610 0.48356 0.43893 0.00000
O149 O 0.00701 0.54544 0.53524 0.00000
O150 O 0.98519 0.51586 0.43705 0.00000
O151 O 0.04792 0.51314 0.53712 0.00000
O152 O 0.98545 0.51647 0.63459 0.00000
O153 O 0.00454 0.45460 0.53828 0.00000
U154 U 0.02440 0.96285 0.63387 0.00000
U155 U 0.98720 0.03735 0.43978 0.00000
U156 U 0.95823 0.97568 0.53551 0.00000
U157 U 0.05338 0.02453 0.53814 0.00000
U158 U 0.02205 0.96777 0.42716 0.00000
U159 U 0.98955 0.03243 0.64649 0.00000
C160 C 0.00869 0.99405 0.79093 0.00000
C161 C 0.04865 0.91456 0.52131 0.00000
C162 C 0.96296 0.08564 0.55234 0.00000
C163 C 0.00291 0.00615 0.28272 0.00000
C164 C 0.92445 0.01587 0.41591 0.00000
C165 C 0.97019 0.92428 0.65451 0.00000
C166 C 0.04142 0.07592 0.41914 0.00000
C167 C 0.08715 0.98433 0.65773 0.00000
C168 C 0.08426 0.99038 0.40363 0.00000
C169 C 0.96730 0.93033 0.40040 0.00000
C170 C 0.04431 0.06987 0.67325 0.00000
C171 C 0.92734 0.00982 0.67002 0.00000
O172 O 0.01868 0.97415 0.75692 0.00000
O173 O 0.04424 0.92329 0.58443 0.00000
O174 O 0.96737 0.07691 0.48922 0.00000
O175 O 0.99293 0.02605 0.31672 0.00000
O176 O 0.92556 0.99571 0.45869 0.00000
O177 O 0.95481 0.93711 0.61134 0.00000
O178 O 0.05679 0.06309 0.46231 0.00000
O179 O 0.08605 0.00449 0.61495 0.00000
O180 O 0.06563 0.97471 0.38659 0.00000
O181 O 0.99080 0.93630 0.38453 0.00000
O182 O 0.02080 0.06391 0.68912 0.00000
O183 O 0.94597 0.02549 0.68705 0.00000
O184 O 0.01756 0.07069 0.40400 0.00000
O185 O 0.94273 0.03227 0.40194 0.00000
O186 O 0.06887 0.96793 0.67171 0.00000
O187 O 0.99404 0.92951 0.66965 0.00000
O188 O 0.04285 0.92621 0.46189 0.00000
O189 O 0.01359 0.98480 0.30924 0.00000
O190 O 0.99802 0.01540 0.76441 0.00000
O191 O 0.96876 0.07399 0.61176 0.00000
O192 O 0.92740 0.99184 0.62126 0.00000
O193 O 0.95297 0.94098 0.44877 0.00000
O194 O 0.05864 0.05922 0.62488 0.00000
O195 O 0.08420 0.00836 0.45238 0.00000
O196 O 0.99990 0.95526 0.53018 0.00000
O197 O 0.02961 0.00940 0.63604 0.00000
O198 O 0.02737 0.01410 0.43886 0.00000
O199 O 0.96649 0.02164 0.54222 0.00000
O200 O 0.98199 0.99080 0.43761 0.00000
O201 O 0.01187 0.04494 0.54347 0.00000
O202 O 0.98423 0.98610 0.63479 0.00000
O203 O 0.04512 0.97856 0.53143 0.00000
U204 U 0.53137 0.02920 0.63882 0.00000
U205 U 0.48016 0.97100 0.43454 0.00000
U206 U 0.54638 0.96340 0.53598 0.00000
U207 U 0.46515 0.03680 0.53737 0.00000
U208 U 0.52960 0.02902 0.43173 0.00000
U209 U 0.48193 0.97118 0.64162 0.00000
C210 C 0.50794 0.00010 0.79124 0.00000
C211 C 0.56654 0.07142 0.53323 0.00000
C212 C 0.44499 0.92878 0.54012 0.00000
C213 C 0.50359 0.99990 0.28211 0.00000
C214 C 0.52422 0.91922 0.41026 0.00000
C215 C 0.58717 0.99075 0.66138 0.00000
C216 C 0.42436 0.00945 0.41198 0.00000
C217 C 0.48731 0.08098 0.66309 0.00000
C218 C 0.48514 0.08076 0.40853 0.00000
C219 C 0.58500 0.99053 0.40681 0.00000
C220 C 0.42653 0.00967 0.66654 0.00000
C221 C 0.52640 0.91944 0.66483 0.00000
O222 O 0.52233 0.01749 0.76009 0.00000
O223 O 0.55983 0.06297 0.59502 0.00000
O224 O 0.45171 0.93723 0.47833 0.00000
O225 O 0.48920 0.98271 0.31326 0.00000
O226 O 0.54165 0.92660 0.45538 0.00000
O227 O 0.58192 0.97237 0.61604 0.00000
O228 O 0.42961 0.02784 0.45731 0.00000
O229 O 0.46988 0.07360 0.61796 0.00000
O230 O 0.50670 0.06885 0.39247 0.00000
O231 O 0.57059 0.01112 0.39138 0.00000
O232 O 0.44094 0.98908 0.68197 0.00000
O233 O 0.50483 0.93135 0.68088 0.00000
O234 O 0.43851 0.98883 0.39634 0.00000
O235 O 0.50240 0.93111 0.39525 0.00000
O236 O 0.50914 0.06909 0.67810 0.00000
O237 O 0.57302 0.01137 0.67700 0.00000
O238 O 0.55878 0.06287 0.47226 0.00000
O239 O 0.51851 0.01710 0.31160 0.00000
O240 O 0.49303 0.98310 0.76175 0.00000
O241 O 0.45275 0.93733 0.60109 0.00000
O242 O 0.54304 0.92674 0.61825 0.00000
O243 O 0.58053 0.97223 0.45318 0.00000
O244 O 0.43100 0.02798 0.62017 0.00000
O245 O 0.46849 0.07346 0.45510 0.00000
O246 O 0.54872 0.01027 0.53501 0.00000
O247 O 0.48724 0.01769 0.63578 0.00000
O248 O 0.48555 0.01752 0.43824 0.00000
O249 O 0.50156 0.95493 0.53768 0.00000
O250 O 0.52430 0.98251 0.43757 0.00000
O251 O 0.46281 0.98993 0.53835 0.00000
O252 O 0.52598 0.98268 0.63511 0.00000
O253 O 0.50997 0.04527 0.53567 0.00000
U254 U 0.48823 0.53660 0.63493 0.00000
U255 U 0.52333 0.46344 0.43834 0.00000
U256 U 0.55384 0.52346 0.53815 0.00000
U257 U 0.45773 0.47658 0.53512 0.00000
U258 U 0.48978 0.53381 0.42809 0.00000
U259 U 0.52179 0.46622 0.64518 0.00000
C260 C 0.50389 0.50344 0.79090 0.00000
C261 C 0.46454 0.58653 0.52403 0.00000
C262 C 0.54703 0.41351 0.54923 0.00000
C263 C 0.50768 0.49660 0.28237 0.00000
C264 C 0.58643 0.48387 0.41766 0.00000
C265 C 0.54329 0.57380 0.65933 0.00000
C266 C 0.46828 0.42624 0.41394 0.00000
C267 C 0.42514 0.51617 0.65560 0.00000
C268 C 0.42703 0.51275 0.40134 0.00000
C269 C 0.54518 0.57038 0.40506 0.00000
C270 C 0.46638 0.42966 0.66820 0.00000
C271 C 0.58453 0.48729 0.67193 0.00000
O272 O 0.49417 0.52389 0.75757 0.00000
O273 O 0.46899 0.57705 0.58684 0.00000
O274 O 0.54257 0.42299 0.48642 0.00000
O275 O 0.51740 0.47614 0.31569 0.00000
O276 O 0.58586 0.50358 0.46142 0.00000
O277 O 0.55826 0.56111 0.61603 0.00000
O278 O 0.45330 0.43892 0.45723 0.00000
O279 O 0.42570 0.49645 0.61184 0.00000
O280 O 0.44591 0.52820 0.38572 0.00000
O281 O 0.52150 0.56507 0.38811 0.00000
O282 O 0.49006 0.43497 0.68515 0.00000
O283 O 0.56565 0.47184 0.68754 0.00000
O284 O 0.49219 0.43113 0.39986 0.00000
O285 O 0.56778 0.46800 0.40225 0.00000
O286 O 0.44378 0.53203 0.67102 0.00000
O287 O 0.51937 0.56890 0.67340 0.00000
O288 O 0.46991 0.57540 0.46422 0.00000
O289 O 0.49751 0.51786 0.30961 0.00000
O290 O 0.51406 0.48217 0.76365 0.00000
O291 O 0.54166 0.42464 0.60904 0.00000
O292 O 0.58465 0.50577 0.62409 0.00000
O293 O 0.55948 0.55893 0.45336 0.00000
O294 O 0.45209 0.44111 0.61990 0.00000
O295 O 0.42691 0.49427 0.44917 0.00000
O296 O 0.51270 0.54476 0.53247 0.00000
O297 O 0.48213 0.49016 0.63456 0.00000
O298 O 0.48360 0.48751 0.43726 0.00000
O299 O 0.54471 0.47763 0.54224 0.00000
O300 O 0.52944 0.50987 0.43870 0.00000
O301 O 0.49887 0.45527 0.54080 0.00000
O302 O 0.52797 0.51252 0.63601 0.00000
O303 O 0.46686 0.52240 0.53102 0.00000
C304 C 0.06628 0.39849 0.42046 0.00000
C305 C 0.10198 0.31160 0.17742 0.00000
C306 C 0.09884 0.32992 0.23217 0.00000
C307 C 0.07396 0.33939 0.25322 0.00000
C308 C 0.05195 0.32982 0.21646 0.00000
C309 C 0.05496 0.31098 0.16153 0.00000
C310 C 0.07980 0.30232 0.14107 0.00000
H311 H 0.03987 0.38058 0.27009 0.00000
H312 H 0.10153 0.34622 0.37498 0.00000
H313 H 0.09801 0.37878 0.46276 0.00000
H314 H 0.06458 0.41125 0.45705 0.00000
H315 H 0.11379 0.33623 0.25604 0.00000
H316 H 0.03512 0.33606 0.22872 0.00000
H317 H 0.04010 0.30416 0.13838 0.00000
H318 H 0.08172 0.29026 0.10289 0.00000
C319 C 0.04917 0.39906 0.36327 0.00000
C320 C 0.05162 0.38002 0.30902 0.00000
C321 C 0.07147 0.35993 0.31176 0.00000
C322 C 0.08840 0.35964 0.37108 0.00000
C323 C 0.08611 0.37891 0.42410 0.00000
C324 C 0.90266 0.97912 0.69119 0.00000
C325 C 0.82861 0.02035 0.95322 0.00000
C326 C 0.84058 0.00933 0.89393 0.00000
C327 C 0.86752 0.01216 0.88131 0.00000
C328 C 0.88224 0.02684 0.93086 0.00000
C329 C 0.87031 0.03777 0.99157 0.00000
C330 C 0.84358 0.03505 0.00202 0.00000
H331 H 0.90602 0.03010 0.79800 0.00000
H332 H 0.85818 0.96653 0.80951 0.00000
H333 H 0.87633 0.94960 0.70558 0.00000
H334 H 0.91035 0.97183 0.65001 0.00000
H335 H 0.83042 0.99990 0.86106 0.00000
H336 H 0.90019 0.02936 0.92333 0.00000
H337 H 0.88043 0.04700 0.02541 0.00000
H338 H 0.83556 0.04306 0.04177 0.00000
C339 C 0.91134 0.00298 0.71844 0.00000
C340 C 0.90000 0.01376 0.77982 0.00000
C341 C 0.87962 0.00010 0.81499 0.00000
C342 C 0.87141 0.97606 0.78654 0.00000
C343 C 0.88248 0.96573 0.72487 0.00000
C344 C 0.48239 0.08815 0.28184 0.00000
C345 C 0.39885 0.18133 0.17454 0.00000
C346 C 0.41880 0.16268 0.18687 0.00000
C347 C 0.41801 0.14403 0.24365 0.00000
C348 C 0.39622 0.14488 0.28869 0.00000
C349 C 0.37576 0.16350 0.27594 0.00000
C350 C 0.37727 0.18198 0.22020 0.00000
H351 H 0.43897 0.12404 0.36550 0.00000
H352 H 0.44956 0.11756 0.15240 0.00000
H353 H 0.48485 0.08857 0.17358 0.00000
H354 H 0.49634 0.07591 0.29001 0.00000
H355 H 0.43333 0.16245 0.15641 0.00000
H356 H 0.39533 0.13291 0.32757 0.00000
H357 H 0.36093 0.16350 0.30526 0.00000
H358 H 0.36383 0.19490 0.21315 0.00000
C359 C 0.46887 0.09875 0.33856 0.00000
C360 C 0.44808 0.11686 0.32644 0.00000
C361 C 0.44052 0.12456 0.25639 0.00000
C362 C 0.45443 0.11318 0.19968 0.00000
C363 C 0.47534 0.09556 0.21224 0.00000
C364 C 0.42080 0.48766 0.30506 0.00000
C365 C 0.31764 0.54127 0.14669 0.00000
C366 C 0.34061 0.52848 0.16877 0.00000
C367 C 0.34749 0.52575 0.24161 0.00000
C368 C 0.33031 0.53664 0.29239 0.00000
C369 C 0.30683 0.54932 0.27044 0.00000
C370 C 0.30076 0.55213 0.19809 0.00000
H371 H 0.38078 0.53588 0.34989 0.00000
H372 H 0.37408 0.48373 0.18599 0.00000
H373 H 0.41403 0.46423 0.21850 0.00000
H374 H 0.43669 0.47928 0.31895 0.00000
H375 H 0.35197 0.52141 0.13406 0.00000
H376 H 0.33456 0.53543 0.34134 0.00000
H377 H 0.29513 0.55596 0.30484 0.00000
H378 H 0.28534 0.56130 0.18367 0.00000
C379 C 0.41099 0.50893 0.34369 0.00000
C380 C 0.38732 0.52133 0.32327 0.00000
C381 C 0.37306 0.51235 0.26323 0.00000
C382 C 0.38336 0.49045 0.22547 0.00000
C383 C 0.40710 0.47854 0.24541 0.00000
C384 C 0.11159 0.96846 0.37656 0.00000
C385 C 0.18164 0.01969 0.12116 0.00000
C386 C 0.17070 0.00662 0.17864 0.00000
C387 C 0.14362 0.00792 0.19189 0.00000
C388 C 0.12765 0.02320 0.14491 0.00000
C389 C 0.13856 0.03620 0.08599 0.00000
C390 C 0.16543 0.03495 0.07493 0.00000
H391 H 0.10400 0.02190 0.27819 0.00000
H392 H 0.15668 0.96099 0.25614 0.00000
H393 H 0.14014 0.94059 0.35726 0.00000
H394 H 0.10458 0.95979 0.41654 0.00000
H395 H 0.18168 0.99657 0.20981 0.00000
H396 H 0.10956 0.02471 0.15296 0.00000
H397 H 0.12766 0.04584 0.05378 0.00000
H398 H 0.17271 0.04432 0.03648 0.00000
C399 C 0.10100 0.99257 0.35327 0.00000
C400 C 0.11133 0.00542 0.29366 0.00000
C401 C 0.13262 0.99402 0.25628 0.00000
C402 C 0.14279 0.96929 0.28069 0.00000
C403 C 0.13270 0.95690 0.34066 0.00000
C404 C 0.51995 0.88521 0.66422 0.00000
C405 C 0.58014 0.81384 0.91235 0.00000
C406 C 0.56437 0.82549 0.85979 0.00000
C407 C 0.57162 0.84890 0.82291 0.00000
C408 C 0.59559 0.86050 0.84125 0.00000
C409 C 0.61183 0.84860 0.89380 0.00000
C410 C 0.60396 0.82576 0.93020 0.00000
H411 H 0.56191 0.90057 0.78796 0.00000
H412 H 0.53930 0.82678 0.72606 0.00000
H413 H 0.51073 0.84651 0.64335 0.00000
H414 H 0.50878 0.89306 0.62946 0.00000
H415 H 0.54831 0.81754 0.84837 0.00000
H416 H 0.60078 0.87632 0.81819 0.00000
H417 H 0.62814 0.85612 0.90452 0.00000
H418 H 0.61460 0.81831 0.96675 0.00000
C419 C 0.53502 0.90117 0.70724 0.00000
C420 C 0.55172 0.88951 0.75871 0.00000
C421 C 0.55352 0.86136 0.76748 0.00000
C422 C 0.53818 0.84560 0.72230 0.00000
C423 C 0.52132 0.85737 0.67216 0.00000
C424 C 0.57877 0.50492 0.77199 0.00000
C425 C 0.69053 0.49036 0.94244 0.00000
C426 C 0.66616 0.49705 0.91408 0.00000
C427 C 0.65385 0.48105 0.86221 0.00000
C428 C 0.66714 0.45778 0.83904 0.00000
C429 C 0.69170 0.45068 0.86824 0.00000
C430 C 0.70359 0.46712 0.91849 0.00000
H431 H 0.63373 0.47583 0.72982 0.00000
H432 H 0.61197 0.50536 0.92159 0.00000
H433 H 0.57220 0.51921 0.87183 0.00000
H434 H 0.56238 0.51003 0.75256 0.00000
H435 H 0.65756 0.51277 0.92991 0.00000
H436 H 0.65955 0.44690 0.80380 0.00000
H437 H 0.70019 0.43472 0.85375 0.00000
H438 H 0.72037 0.46264 0.93639 0.00000
C439 C 0.59703 0.49218 0.72999 0.00000
C440 C 0.62135 0.48448 0.75893 0.00000
C441 C 0.62762 0.48948 0.83124 0.00000
C442 C 0.60852 0.50218 0.87294 0.00000
C443 C 0.58458 0.51017 0.84346 0.00000
C444 C 0.94366 0.58221 0.70678 0.00000
C445 C 0.94227 0.68637 0.91860 0.00000
C446 C 0.93812 0.66534 0.87200 0.00000
C447 C 0.95765 0.64575 0.85819 0.00000
C448 C 0.98197 0.64813 0.89299 0.00000
C449 C 0.98620 0.66919 0.94100 0.00000
C450 C 0.96670 0.68851 0.95268 0.00000
H451 H 0.98947 0.62092 0.76492 0.00000
H452 H 0.91426 0.61790 0.82856 0.00000
H453 H 0.90664 0.58468 0.74481 0.00000
H454 H 0.94060 0.56831 0.67409 0.00000
H455 H 0.92176 0.66410 0.84885 0.00000
H456 H 0.99548 0.63555 0.88408 0.00000
H457 H 0.00231 0.67026 0.96544 0.00000
H458 H 0.96991 0.70299 0.98340 0.00000
C459 C 0.96812 0.59303 0.71259 0.00000
C460 C 0.97271 0.61361 0.76138 0.00000
C461 C 0.95256 0.62361 0.80549 0.00000
C462 C 0.92794 0.61197 0.79902 0.00000
C463 C 0.92344 0.59186 0.74957 0.00000
C464 C 0.10037 0.48283 0.33693 0.00000
C465 C 0.19506 0.53963 0.16321 0.00000
C466 C 0.17725 0.52359 0.19747 0.00000
C467 C 0.15365 0.53410 0.22494 0.00000
C468 C 0.14853 0.56178 0.21712 0.00000
C469 C 0.16633 0.57810 0.18162 0.00000
C470 C 0.18970 0.56724 0.15612 0.00000
H471 H 0.12253 0.54344 0.33735 0.00000
H472 H 0.14056 0.48264 0.20295 0.00000
H473 H 0.11284 0.45493 0.26548 0.00000
H474 H 0.08871 0.47168 0.36102 0.00000
H475 H 0.18103 0.50510 0.20258 0.00000
H476 H 0.13310 0.56941 0.23575 0.00000
H477 H 0.16246 0.59649 0.17503 0.00000
H478 H 0.20188 0.57842 0.13414 0.00000
C479 C 0.10335 0.50899 0.35830 0.00000
C480 C 0.12059 0.52561 0.32231 0.00000
C481 C 0.13515 0.51605 0.26369 0.00000
C482 C 0.13147 0.48944 0.24258 0.00000
C483 C 0.11464 0.47293 0.27938 0.00000
C484 C 0.94888 0.91201 0.65550 0.00000
C485 C 0.93341 0.80780 0.86381 0.00000
C486 C 0.93230 0.83085 0.82223 0.00000
C487 C 0.95321 0.83836 0.77841 0.00000
C488 C 0.97572 0.82175 0.77812 0.00000
C489 C 0.97684 0.79818 0.81941 0.00000
C490 C 0.95608 0.79150 0.86312 0.00000
H491 H 0.98998 0.87396 0.74445 0.00000
H492 H 0.91276 0.86288 0.70976 0.00000
H493 H 0.91039 0.90306 0.64672 0.00000
H494 H 0.94791 0.92796 0.62850 0.00000
H495 H 0.91713 0.84183 0.82328 0.00000
H496 H 0.99011 0.82645 0.75012 0.00000
H497 H 0.99173 0.78682 0.81755 0.00000
H498 H 0.95724 0.77607 0.89217 0.00000
C499 C 0.97238 0.90343 0.68471 0.00000
C500 C 0.97386 0.87965 0.72459 0.00000
C501 C 0.95148 0.86403 0.73555 0.00000
C502 C 0.92789 0.87310 0.70442 0.00000
C503 C 0.92651 0.89697 0.66591 0.00000
C504 C 0.41523 0.96946 0.33597 0.00000
C505 C 0.30503 0.01134 0.18943 0.00000
C506 C 0.32900 0.00010 0.20965 0.00000
C507 C 0.33906 0.00272 0.27968 0.00000
C508 C 0.32404 0.01713 0.32947 0.00000
C509 C 0.29956 0.02813 0.30961 0.00000
C510 C 0.29032 0.02576 0.23974 0.00000
H511 H 0.37658 0.02024 0.36872 0.00000
H512 H 0.36380 0.95732 0.23784 0.00000
H513 H 0.40519 0.94029 0.26585 0.00000
H514 H 0.43174 0.96213 0.34837 0.00000
H515 H 0.33888 0.99075 0.17557 0.00000
H516 H 0.33041 0.01941 0.37634 0.00000
H517 H 0.28933 0.03718 0.34373 0.00000
H518 H 0.27424 0.03382 0.22626 0.00000
C519 C 0.40677 0.99317 0.36612 0.00000
C520 C 0.38218 0.00401 0.34796 0.00000
C521 C 0.36560 0.99097 0.29888 0.00000
C522 C 0.37460 0.96670 0.26973 0.00000
C523 C 0.39923 0.95631 0.28714 0.00000
C524 C 0.49162 0.38122 0.39647 0.00000
C525 C 0.40425 0.31803 0.20650 0.00000
C526 C 0.42562 0.32800 0.24298 0.00000
C527 C 0.42334 0.34994 0.28999 0.00000
C528 C 0.39847 0.36185 0.29891 0.00000
C529 C 0.37667 0.35163 0.26283 0.00000
C530 C 0.37958 0.33023 0.21580 0.00000
H531 H 0.43616 0.40031 0.32531 0.00000
H532 H 0.46641 0.32495 0.34383 0.00000
H533 H 0.50351 0.34207 0.39793 0.00000
H534 H 0.50644 0.38797 0.41991 0.00000
H535 H 0.44217 0.31988 0.23616 0.00000
H536 H 0.39642 0.37674 0.32921 0.00000
H537 H 0.35998 0.35928 0.27045 0.00000
H538 H 0.36501 0.32395 0.19027 0.00000
C539 C 0.47173 0.39843 0.37468 0.00000
C540 C 0.44964 0.38840 0.34012 0.00000
C541 C 0.44725 0.36065 0.32708 0.00000
C542 C 0.46766 0.34358 0.35066 0.00000
C543 C 0.48972 0.35376 0.38386 0.00000
C544 C 0.01557 0.11927 0.38879 0.00000
C545 C 0.10768 0.18287 0.22168 0.00000
C546 C 0.08534 0.17246 0.25129 0.00000
C547 C 0.08647 0.15225 0.30426 0.00000
C548 C 0.11123 0.14255 0.32653 0.00000
C549 C 0.13396 0.15325 0.29743 0.00000
C550 C 0.13224 0.17288 0.24431 0.00000
H551 H 0.07498 0.10226 0.34680 0.00000
H552 H 0.03981 0.17554 0.33282 0.00000
H553 H 0.00149 0.15738 0.37508 0.00000
H554 H 0.00010 0.11216 0.40745 0.00000
H555 H 0.06889 0.17909 0.23554 0.00000
H556 H 0.11258 0.12881 0.36111 0.00000
H557 H 0.15048 0.14712 0.31390 0.00000
H558 H 0.14754 0.17943 0.22361 0.00000
C559 C 0.03730 0.10297 0.38011 0.00000
C560 C 0.06025 0.11354 0.35267 0.00000
C561 C 0.06164 0.14094 0.33360 0.00000
C562 C 0.03932 0.15712 0.34387 0.00000
C563 C 0.01648 0.14635 0.37002 0.00000
C564 C 0.59250 0.98086 0.74627 0.00000
C565 C 0.70641 0.01029 0.88436 0.00000
C566 C 0.68134 0.00253 0.86662 0.00000
C567 C 0.67191 0.00314 0.79556 0.00000
C568 C 0.68875 0.01213 0.74207 0.00000
C569 C 0.71430 0.01970 0.75954 0.00000
C570 C 0.72294 0.01933 0.83033 0.00000
H571 H 0.63730 0.02225 0.69795 0.00000
H572 H 0.64153 0.96508 0.85197 0.00000
H573 H 0.59849 0.95412 0.82735 0.00000
H574 H 0.57527 0.97590 0.73544 0.00000
H575 H 0.67026 0.99667 0.90312 0.00000
H576 H 0.68287 0.01309 0.69431 0.00000
H577 H 0.72567 0.02506 0.72319 0.00000
H578 H 0.73984 0.02513 0.84193 0.00000
C579 C 0.60397 0.00108 0.70825 0.00000
C580 C 0.62963 0.00838 0.72411 0.00000
C581 C 0.64422 0.99524 0.77886 0.00000
C582 C 0.63214 0.97450 0.81606 0.00000
C583 C 0.60650 0.96769 0.80077 0.00000
C584 C 0.52910 0.61472 0.63430 0.00000
C585 C 0.57727 0.68509 0.89731 0.00000
C586 C 0.56845 0.67372 0.83439 0.00000
C587 C 0.55372 0.65008 0.83385 0.00000
C588 C 0.54820 0.63794 0.89974 0.00000
C589 C 0.55678 0.64955 0.96377 0.00000
C590 C 0.57167 0.67264 0.96263 0.00000
H591 H 0.54870 0.59857 0.79451 0.00000
H592 H 0.53785 0.67280 0.70953 0.00000
H593 H 0.52584 0.65361 0.60167 0.00000
H594 H 0.52364 0.60708 0.59093 0.00000
H595 H 0.57243 0.68203 0.79067 0.00000
H596 H 0.53870 0.62196 0.90095 0.00000
H597 H 0.55244 0.64167 0.00774 0.00000
H598 H 0.57798 0.67990 0.00562 0.00000
C599 C 0.53598 0.59847 0.69130 0.00000
C600 C 0.54399 0.60983 0.75587 0.00000
C601 C 0.54514 0.63795 0.76400 0.00000
C602 C 0.53771 0.65400 0.70532 0.00000
C603 C 0.53020 0.64255 0.64102 0.00000
C604 C 0.92032 0.51563 0.74377 0.00000
C605 C 0.80743 0.49001 0.88769 0.00000
C606 C 0.83234 0.49735 0.86828 0.00000
C607 C 0.84137 0.49447 0.79777 0.00000
C608 C 0.82430 0.48362 0.74665 0.00000
C609 C 0.79891 0.47648 0.76573 0.00000
C610 C 0.79067 0.47911 0.83604 0.00000
H611 H 0.87557 0.47248 0.70585 0.00000
H612 H 0.87178 0.53446 0.84446 0.00000
H613 H 0.91458 0.54489 0.81757 0.00000
H614 H 0.93746 0.52034 0.73189 0.00000
H615 H 0.84358 0.50446 0.90324 0.00000
H616 H 0.82992 0.48114 0.69940 0.00000
H617 H 0.78738 0.46985 0.73080 0.00000
H618 H 0.77388 0.47359 0.84891 0.00000
C619 C 0.90879 0.49415 0.71100 0.00000
C620 C 0.88329 0.48722 0.72841 0.00000
C621 C 0.86890 0.50199 0.77939 0.00000
C622 C 0.88104 0.52396 0.81123 0.00000
C623 C 0.90653 0.53044 0.79451 0.00000
C624 C 0.12354 0.48876 0.65123 0.00000
C625 C 0.20978 0.54395 0.86233 0.00000
C626 C 0.19442 0.52858 0.81772 0.00000
C627 C 0.17154 0.53905 0.78447 0.00000
C628 C 0.16438 0.56590 0.79816 0.00000
C629 C 0.18005 0.58170 0.84257 0.00000
C630 C 0.20230 0.57069 0.87566 0.00000
H631 H 0.11943 0.53762 0.76488 0.00000
H632 H 0.18447 0.49950 0.69299 0.00000
H633 H 0.15847 0.47178 0.62422 0.00000
H634 H 0.11314 0.47787 0.62198 0.00000
H635 H 0.19942 0.51059 0.80936 0.00000
H636 H 0.14903 0.57333 0.77745 0.00000
H637 H 0.17547 0.59985 0.85005 0.00000
H638 H 0.21231 0.58117 0.90694 0.00000
C639 C 0.11202 0.50817 0.69310 0.00000
C640 C 0.12747 0.52444 0.73636 0.00000
C641 C 0.15498 0.52139 0.73789 0.00000
C642 C 0.16617 0.50168 0.69402 0.00000
C643 C 0.15066 0.48531 0.65215 0.00000
C644 C 0.95126 0.92390 0.31077 0.00000
C645 C 0.94049 0.80363 0.17565 0.00000
C646 C 0.93871 0.82995 0.19878 0.00000
C647 C 0.95955 0.84240 0.23475 0.00000
C648 C 0.98258 0.82721 0.24734 0.00000
C649 C 0.98465 0.80063 0.22322 0.00000
C650 C 0.96359 0.78871 0.18892 0.00000
H651 H 0.97833 0.86642 0.35244 0.00000
H652 H 0.93436 0.88557 0.17803 0.00000
H653 H 0.92902 0.92892 0.22094 0.00000
H654 H 0.94952 0.94166 0.32705 0.00000
H655 H 0.92310 0.83981 0.19023 0.00000
H656 H 0.99668 0.83488 0.27205 0.00000
H657 H 0.00010 0.79081 0.23028 0.00000
H658 H 0.96485 0.77066 0.17465 0.00000
C659 C 0.96575 0.90535 0.34974 0.00000
C660 C 0.96844 0.87897 0.32541 0.00000
C661 C 0.95651 0.87086 0.26084 0.00000
C662 C 0.94215 0.89026 0.22185 0.00000
C663 C 0.93921 0.91630 0.24701 0.00000
C664 C 0.41285 0.97725 0.74943 0.00000
C665 C 0.30077 0.02208 0.87040 0.00000
C666 C 0.32328 0.00848 0.84972 0.00000
C667 C 0.34437 0.02180 0.81827 0.00000
C668 C 0.34198 0.04969 0.80767 0.00000
C669 C 0.31937 0.06365 0.82936 0.00000
C670 C 0.29867 0.04991 0.85916 0.00000
H671 H 0.37600 0.02864 0.70612 0.00000
H672 H 0.36937 0.97860 0.87544 0.00000
H673 H 0.40541 0.95408 0.83621 0.00000
H674 H 0.42781 0.96759 0.73473 0.00000
H675 H 0.32452 0.98978 0.85687 0.00000
H676 H 0.35560 0.05905 0.78595 0.00000
H677 H 0.31819 0.08241 0.82371 0.00000
H678 H 0.28328 0.05928 0.87175 0.00000
C679 C 0.40406 0.99990 0.71085 0.00000
C680 C 0.38190 0.01367 0.73286 0.00000
C681 C 0.36821 0.00611 0.79467 0.00000
C682 C 0.37781 0.98383 0.83337 0.00000
C683 C 0.39957 0.96935 0.81046 0.00000
C684 C 0.47546 0.41062 0.78226 0.00000
C685 C 0.40053 0.31111 0.87107 0.00000
C686 C 0.41886 0.33090 0.86234 0.00000
C687 C 0.41594 0.35112 0.80976 0.00000
C688 C 0.39368 0.35068 0.76517 0.00000
C689 C 0.37484 0.33089 0.77433 0.00000
C690 C 0.37846 0.31090 0.82589 0.00000
H691 H 0.43380 0.37556 0.69211 0.00000
H692 H 0.44656 0.37607 0.90571 0.00000
H693 H 0.47931 0.40706 0.89004 0.00000
H694 H 0.48834 0.42365 0.77643 0.00000
H695 H 0.43373 0.33084 0.89242 0.00000
H696 H 0.39139 0.36372 0.72900 0.00000
H697 H 0.35967 0.33113 0.74543 0.00000
H698 H 0.36612 0.29726 0.83044 0.00000
C699 C 0.46206 0.40120 0.72374 0.00000
C700 C 0.44283 0.38192 0.73239 0.00000
C701 C 0.43676 0.37184 0.80074 0.00000
C702 C 0.45050 0.38206 0.85942 0.00000
C703 C 0.46987 0.40086 0.85021 0.00000
C704 C 0.07570 0.09120 0.68270 0.00000
C705 C 0.10006 0.19565 0.88169 0.00000
C706 C 0.09932 0.17244 0.84140 0.00000
C707 C 0.07694 0.16535 0.80167 0.00000
C708 C 0.05489 0.18255 0.80420 0.00000
C709 C 0.05561 0.20629 0.84417 0.00000
C710 C 0.07782 0.21255 0.88387 0.00000
H711 H 0.03835 0.13066 0.77610 0.00000
H712 H 0.11460 0.13950 0.72782 0.00000
H713 H 0.11405 0.09906 0.66692 0.00000
H714 H 0.07545 0.07513 0.65654 0.00000
H715 H 0.11422 0.16107 0.84054 0.00000
H716 H 0.03956 0.17815 0.77897 0.00000
H717 H 0.04098 0.21803 0.84416 0.00000
H718 H 0.07792 0.22811 0.91213 0.00000
C719 C 0.05336 0.10052 0.71529 0.00000
C720 C 0.05369 0.12446 0.75391 0.00000
C721 C 0.07673 0.13950 0.76014 0.00000
C722 C 0.09909 0.12968 0.72565 0.00000
C723 C 0.09870 0.10566 0.68842 0.00000
C724 C 0.59328 0.02319 0.32484 0.00000
C725 C 0.71525 0.01632 0.22349 0.00000
C726 C 0.68856 0.01919 0.23323 0.00000
C727 C 0.67709 0.01627 0.30090 0.00000
C728 C 0.69360 0.01007 0.35940 0.00000
C729 C 0.72070 0.00748 0.35010 0.00000
C730 C 0.73144 0.01002 0.28244 0.00000
H731 H 0.64408 0.99038 0.38693 0.00000
H732 H 0.64132 0.04851 0.23532 0.00000
H733 H 0.59622 0.05118 0.24620 0.00000
H734 H 0.57506 0.02481 0.33016 0.00000
H735 H 0.67776 0.02322 0.19343 0.00000
H736 H 0.68645 0.00766 0.40503 0.00000
H737 H 0.73169 0.00399 0.38983 0.00000
H738 H 0.74954 0.00752 0.27624 0.00000
C739 C 0.60746 0.00513 0.36621 0.00000
C740 C 0.63456 0.00280 0.35853 0.00000
C741 C 0.64786 0.01881 0.30877 0.00000
C742 C 0.63295 0.03725 0.26802 0.00000
C743 C 0.60599 0.03911 0.27513 0.00000
C744 C 0.53281 0.61460 0.42765 0.00000
C745 C 0.58450 0.69308 0.18846 0.00000
C746 C 0.57079 0.68014 0.24138 0.00000
C747 C 0.57830 0.65442 0.26686 0.00000
C748 C 0.60032 0.64184 0.23653 0.00000
C749 C 0.61452 0.65499 0.18353 0.00000
C750 C 0.60639 0.68019 0.15854 0.00000
H751 H 0.56711 0.60239 0.28624 0.00000
H752 H 0.55261 0.67389 0.38093 0.00000
H753 H 0.52724 0.65249 0.46501 0.00000
H754 H 0.52299 0.60596 0.46285 0.00000
H755 H 0.55600 0.68879 0.26092 0.00000
H756 H 0.60559 0.62453 0.25181 0.00000
H757 H 0.62963 0.64671 0.16476 0.00000
H758 H 0.61557 0.68857 0.12162 0.00000
C759 C 0.54452 0.59982 0.37455 0.00000
C760 C 0.55921 0.61263 0.32239 0.00000
C761 C 0.56236 0.64073 0.32312 0.00000
C762 C 0.55048 0.65521 0.37834 0.00000
C763 C 0.53556 0.64238 0.42922 0.00000
C764 C 0.91543 0.46885 0.33190 0.00000
C765 C 0.79540 0.49236 0.22089 0.00000
C766 C 0.82147 0.48570 0.23289 0.00000
C767 C 0.83325 0.48775 0.30105 0.00000
C768 C 0.81773 0.49703 0.35762 0.00000
C769 C 0.79120 0.50348 0.34605 0.00000
C770 C 0.78020 0.50170 0.27791 0.00000
H771 H 0.86962 0.50948 0.38667 0.00000
H772 H 0.86423 0.44984 0.24162 0.00000
H773 H 0.90861 0.44068 0.25612 0.00000
H774 H 0.93328 0.46462 0.33874 0.00000
H775 H 0.83164 0.47963 0.19435 0.00000
H776 H 0.82514 0.49894 0.40349 0.00000
H777 H 0.78077 0.50904 0.38457 0.00000
H778 H 0.76259 0.50677 0.27011 0.00000
C779 C 0.90389 0.48926 0.37025 0.00000
C780 C 0.87733 0.49547 0.36034 0.00000
C781 C 0.86190 0.48102 0.31134 0.00000
C782 C 0.87411 0.46012 0.27371 0.00000
C783 C 0.90059 0.45439 0.28300 0.00000
loop_
_geom_bond_atom_site_label_1
_geom_bond_atom_site_label_2
_geom_bond_distance
_geom_bond_site_symmetry_2
_ccdc_geom_bond_type
O0 In4 2.242 1_556 S
O0 C8 1.247 . A
O1 In4 2.259 1_556 S
O1 C8 1.260 . A
O2 In4 2.300 . S
O2 C11 1.245 . A
O3 In4 2.234 . S
O3 C11 1.251 . A
In4 O6 2.242 1_554 S
In4 O7 2.285 1_554 S
In4 O9 2.397 . S
In4 O10 2.185 . S
C5 O9 1.269 . A
C5 O10 1.254 . A
O6 C12 1.251 . A
O7 C12 1.256 . A
O13 In17 2.242 . S
O13 C21 1.247 . A
O14 In17 2.259 . S
O14 C21 1.260 . A
O15 In17 2.300 1_556 S
O15 C24 1.245 . A
O16 In17 2.234 1_556 S
O16 C24 1.251 . A
In17 O19 2.242 . S
In17 O20 2.285 . S
In17 O22 2.397 . S
In17 O23 2.185 1_554 S
C18 O22 1.269 1_556 A
C18 O23 1.254 . A
O19 C25 1.251 . A
O20 C25 1.256 . A
O26 In30 2.242 1_556 S
O26 C34 1.247 . A
O27 In30 2.259 1_556 S
O27 C34 1.260 . A
O28 In30 2.300 . S
O28 C37 1.245 . A
O29 In30 2.234 . S
O29 C37 1.251 . A
In30 O32 2.242 1_554 S
In30 O33 2.285 1_554 S
In30 O35 2.397 . S
In30 O36 2.185 . S
C31 O35 1.269 . A
C31 O36 1.254 . A
O32 C38 1.251 . A
O33 C38 1.256 . A
O39 In43 2.242 1_556 S
O39 C47 1.247 . A
O40 In43 2.259 1_566 S
O40 C47 1.260 1_565 A
O41 In43 2.300 1_565 S
O41 C50 1.245 . A
O42 In43 2.234 1_565 S
O42 C50 1.251 . A
In43 O45 2.242 . S
In43 O46 2.285 1_544 S
In43 O48 2.397 . S
In43 O49 2.185 1_545 S
C44 O48 1.269 . A
C44 O49 1.254 1_545 A
O45 C51 1.251 1_554 A
O46 C51 1.256 1_565 A
O52 In56 2.242 1_556 S
O52 C60 1.247 . A
O53 In56 2.259 . S
O53 C60 1.260 1_554 A
O54 In56 2.300 . S
O54 C63 1.245 . A
O55 In56 2.234 . S
O55 C63 1.251 . A
In56 O58 2.242 1_554 S
In56 O59 2.285 1_554 S
In56 O61 2.397 . S
In56 O62 2.185 . S
C57 O61 1.269 . A
C57 O62 1.254 . A
O58 C64 1.251 . A
O59 C64 1.256 . A
O65 In69 2.242 . S
O65 C73 1.247 . A
O66 In69 2.259 . S
O66 C73 1.260 . A
O67 In69 2.300 . S
O67 C76 1.245 1_554 A
O68 In69 2.234 1_556 S
O68 C76 1.251 . A
In69 O71 2.242 . S
In69 O72 2.285 . S
In69 O74 2.397 1_554 S
In69 O75 2.185 1_554 S
C70 O74 1.269 . A
C70 O75 1.254 . A
O71 C77 1.251 . A
O72 C77 1.256 . A
O78 In82 2.242 . S
O78 C86 1.247 . A
O79 In82 2.259 1_565 S
O79 C86 1.260 1_565 A
O80 In82 2.300 1_565 S
O80 C89 1.245 1_554 A
O81 In82 2.234 1_566 S
O81 C89 1.251 . A
In82 O84 2.242 . S
In82 O85 2.285 1_545 S
In82 O87 2.397 1_554 S
In82 O88 2.185 1_544 S
C83 O87 1.269 . A
C83 O88 1.254 1_545 A
O84 C90 1.251 . A
O85 C90 1.256 1_565 A
O91 In95 2.242 . S
O91 C99 1.247 . A
O92 In95 2.259 . S
O92 C99 1.260 . A
O93 In95 2.300 . S
O93 C102 1.245 1_554 A
O94 In95 2.234 1_556 S
O94 C102 1.251 . A
In95 O97 2.242 . S
In95 O98 2.285 . S
In95 O100 2.397 1_554 S
In95 O101 2.185 1_554 S
C96 O100 1.269 . A
C96 O101 1.254 . A
O97 C103 1.251 . A
O98 C103 1.256 . A
U104 O122 2.367 . S
U104 O123 2.367 . S
U104 O136 2.367 1_655 S
U104 O137 2.367 . S
U104 O146 2.314 . S
U104 O147 2.314 1_655 S
U104 O152 2.314 . S
U104 O153 2.314 1_655 S
U105 O124 2.367 . S
U105 O125 2.367 . S
U105 O134 2.367 . S
U105 O135 2.367 . S
U105 O148 2.314 . S
U105 O149 2.314 . S
U105 O150 2.314 1_455 S
U105 O151 2.314 . S
U106 O126 2.367 . S
U106 O127 2.367 . S
U106 O142 2.367 . S
U106 O143 2.367 . S
U106 O146 2.314 . S
U106 O149 2.314 1_655 S
U106 O150 2.314 . S
U106 O152 2.314 . S
U107 O128 2.367 . S
U107 O129 2.367 . S
U107 O144 2.367 . S
U107 O145 2.367 . S
U107 O147 2.314 . S
U107 O148 2.314 . S
U107 O151 2.314 . S
U107 O153 2.314 . S
U108 O130 2.367 1_655 S
U108 O131 2.367 . S
U108 O138 2.367 . S
U108 O139 2.367 . S
U108 O146 2.314 . S
U108 O148 2.314 1_655 S
U108 O150 2.314 . S
U108 O153 2.314 1_655 S
U109 O132 2.367 . S
U109 O133 2.367 . S
U109 O140 2.367 . S
U109 O141 2.367 . S
U109 O147 2.314 . S
U109 O149 2.314 . S
U109 O151 2.314 . S
U109 O152 2.314 1_455 S
C110 O122 1.268 1_455 A
C110 O140 1.268 . A
C111 O123 1.268 . A
C111 O138 1.268 . A
C112 O124 1.268 . A
C112 O141 1.268 . A
C113 O125 1.267 . A
C113 O139 1.268 1_455 A
C114 O126 1.268 . A
C114 O135 1.268 1_655 A
C115 O127 1.268 . A
C115 O137 1.268 . A
C116 O128 1.267 . A
C116 O134 1.268 . A
C117 O129 1.268 . A
C117 O136 1.268 . A
C118 O130 1.268 . A
C118 O145 1.267 . A
C119 O131 1.268 . A
C119 O143 1.268 . A
C120 O132 1.268 . A
C120 O144 1.268 . A
C121 O133 1.268 1_655 A
C121 O142 1.268 . A
U154 O172 2.367 . S
U154 O173 2.367 . S
U154 O186 2.367 . S
U154 O187 2.367 1_455 S
U154 O196 2.310 1_455 S
U154 O197 2.314 1_565 S
U154 O202 2.314 1_455 S
U154 O203 2.314 . S
U155 O174 2.367 . S
U155 O175 2.367 . S
U155 O184 2.367 1_655 S
U155 O185 2.367 . S
U155 O198 2.314 1_655 S
U155 O199 2.314 . S
U155 O200 2.314 1_545 S
U155 O201 2.314 1_655 S
U156 O176 2.367 . S
U156 O177 2.367 . S
U156 O192 2.367 . S
U156 O193 2.367 . S
U156 O196 2.322 . S
U156 O199 2.314 1_565 S
U156 O200 2.314 . S
U156 O202 2.314 . S
U157 O178 2.367 . S
U157 O179 2.367 . S
U157 O194 2.367 . S
U157 O195 2.367 . S
U157 O197 2.314 . S
U157 O198 2.314 . S
U157 O201 2.314 . S
U157 O203 2.314 1_545 S
U158 O180 2.367 . S
U158 O181 2.367 1_455 S
U158 O188 2.367 . S
U158 O189 2.367 . S
U158 O196 2.310 1_455 S
U158 O198 2.314 1_565 S
U158 O200 2.314 1_455 S
U158 O203 2.314 . S
U159 O182 2.367 1_655 S
U159 O183 2.367 . S
U159 O190 2.367 . S
U159 O191 2.367 . S
U159 O197 2.314 1_655 S
U159 O199 2.314 . S
U159 O201 2.314 1_655 S
U159 O202 2.314 1_545 S
C160 O172 1.268 . A
C160 O190 1.268 1_465 A
C161 O173 1.268 . A
C161 O188 1.268 . A
C162 O174 1.268 . A
C162 O191 1.268 . A
C163 O175 1.267 1_455 A
C163 O189 1.268 1_545 A
C164 O176 1.268 1_545 A
C164 O185 1.268 . A
C165 O177 1.268 . A
C165 O187 1.268 . A
C166 O178 1.267 . A
C166 O184 1.268 . A
C167 O179 1.268 1_565 A
C167 O186 1.268 . A
C168 O180 1.268 . A
C168 O195 1.267 1_565 A
C169 O181 1.268 . A
C169 O193 1.268 . A
C170 O182 1.268 . A
C170 O194 1.268 . A
C171 O183 1.268 . A
C171 O192 1.268 1_545 A
U204 O222 2.367 . S
U204 O223 2.367 . S
U204 O236 2.367 . S
U204 O237 2.367 . S
U204 O246 2.314 . S
U204 O247 2.314 . S
U204 O252 2.314 1_545 S
U204 O253 2.314 . S
U205 O224 2.367 . S
U205 O225 2.367 . S
U205 O234 2.367 . S
U205 O235 2.367 . S
U205 O248 2.314 1_565 S
U205 O249 2.314 . S
U205 O250 2.314 . S
U205 O251 2.314 . S
U206 O226 2.367 . S
U206 O227 2.367 . S
U206 O242 2.367 . S
U206 O243 2.367 . S
U206 O246 2.314 1_565 S
U206 O249 2.314 . S
U206 O250 2.314 . S
U206 O252 2.314 . S
U207 O228 2.367 . S
U207 O229 2.367 . S
U207 O244 2.367 . S
U207 O245 2.367 . S
U207 O247 2.314 . S
U207 O248 2.314 . S
U207 O251 2.314 1_545 S
U207 O253 2.314 . S
U208 O230 2.367 . S
U208 O231 2.367 . S
U208 O238 2.367 . S
U208 O239 2.367 . S
U208 O246 2.314 . S
U208 O248 2.314 . S
U208 O250 2.314 1_545 S
U208 O253 2.314 . S
U209 O232 2.367 . S
U209 O233 2.367 . S
U209 O240 2.367 . S
U209 O241 2.367 . S
U209 O247 2.314 1_565 S
U209 O249 2.314 . S
U209 O251 2.314 . S
U209 O252 2.314 . S
C210 O222 1.275 . A
C210 O240 1.260 1_545 A
C211 O223 1.268 . A
C211 O238 1.268 . A
C212 O224 1.268 . A
C212 O241 1.268 . A
C213 O225 1.268 . A
C213 O239 1.267 1_565 A
C214 O226 1.268 . A
C214 O235 1.268 . A
C215 O227 1.268 . A
C215 O237 1.268 1_565 A
C216 O228 1.267 . A
C216 O234 1.268 1_545 A
C217 O229 1.268 . A
C217 O236 1.268 . A
C218 O230 1.268 . A
C218 O245 1.267 . A
C219 O231 1.268 1_565 A
C219 O243 1.268 . A
C220 O232 1.268 1_545 A
C220 O244 1.268 . A
C221 O233 1.268 . A
C221 O242 1.268 . A
U254 O272 2.367 . S
U254 O273 2.367 . S
U254 O286 2.367 . S
U254 O287 2.367 . S
U254 O296 2.314 . S
U254 O297 2.314 . S
U254 O302 2.314 . S
U254 O303 2.314 . S
U255 O274 2.367 . S
U255 O275 2.367 . S
U255 O284 2.367 . S
U255 O285 2.367 . S
U255 O298 2.314 . S
U255 O299 2.314 . S
U255 O300 2.314 . S
U255 O301 2.314 . S
U256 O276 2.367 . S
U256 O277 2.367 . S
U256 O292 2.367 . S
U256 O293 2.367 . S
U256 O296 2.314 . S
U256 O299 2.314 . S
U256 O300 2.314 . S
U256 O302 2.314 . S
U257 O278 2.367 . S
U257 O279 2.367 . S
U257 O294 2.367 . S
U257 O295 2.367 . S
U257 O297 2.314 . S
U257 O298 2.314 . S
U257 O301 2.314 . S
U257 O303 2.314 . S
U258 O280 2.367 . S
U258 O281 2.367 . S
U258 O288 2.367 . S
U258 O289 2.367 . S
U258 O296 2.314 . S
U258 O298 2.314 . S
U258 O300 2.314 . S
U258 O303 2.314 . S
U259 O282 2.367 . S
U259 O283 2.367 . S
U259 O290 2.367 . S
U259 O291 2.367 . S
U259 O297 2.314 . S
U259 O299 2.314 . S
U259 O301 2.314 . S
U259 O302 2.314 . S
C260 O272 1.268 . A
C260 O290 1.268 . A
C261 O273 1.268 . A
C261 O288 1.268 . A
C262 O274 1.268 . A
C262 O291 1.268 . A
C263 O275 1.267 . A
C263 O289 1.268 . A
C264 O276 1.268 . A
C264 O285 1.268 . A
C265 O277 1.268 . A
C265 O287 1.268 . A
C266 O278 1.267 . A
C266 O284 1.268 . A
C267 O279 1.268 . A
C267 O286 1.268 . A
C268 O280 1.268 . A
C268 O295 1.267 . A
C269 O281 1.268 . A
C269 O293 1.268 . A
C270 O282 1.268 . A
C270 O294 1.268 . A
C271 O283 1.268 . A
C271 O292 1.268 . A
C304 H314 0.930 . S
C304 C319 1.360 . A
C304 C323 1.379 . A
C305 C306 1.369 . A
C305 C310 1.388 . A
C306 C307 1.395 . A
C306 H315 0.931 . S
C307 C308 1.390 . A
C307 C321 1.491 . S
C308 C309 1.387 . A
C308 H316 0.931 . S
C309 C310 1.377 . A
C309 H317 0.931 . S
C310 H318 0.930 . S
H311 C320 0.929 . S
H312 C322 0.930 . S
H313 C323 0.930 . S
C319 C320 1.382 . A
C320 C321 1.397 . A
C321 C322 1.385 . A
C322 C323 1.373 . A
C324 H334 0.930 . S
C324 C339 1.360 1_565 A
C324 C343 1.379 . A
C325 C326 1.369 . A
C325 C330 1.388 1_556 A
C326 C327 1.395 . A
C326 H335 0.925 1_545 S
C327 C328 1.390 . A
C327 C341 1.498 . S
C328 C329 1.387 . A
C328 H336 0.931 . S
C329 C330 1.377 1_556 A
C329 H337 0.931 1_556 S
C330 H338 0.930 . S
H331 C340 0.929 . S
H332 C342 0.930 . S
H333 C343 0.930 . S
C339 C340 1.382 . A
C340 C341 1.406 . A
C341 C342 1.368 1_545 A
C342 C343 1.373 . A
C344 H354 0.930 . S
C344 C359 1.360 . A
C344 C363 1.379 . A
C345 C346 1.369 . A
C345 C350 1.388 . A
C346 C347 1.395 . A
C346 H355 0.931 . S
C347 C348 1.390 . A
C347 C361 1.491 . S
C348 C349 1.387 . A
C348 H356 0.931 . S
C349 C350 1.377 . A
C349 H357 0.931 . S
C350 H358 0.930 . S
H351 C360 0.929 . S
H352 C362 0.930 . S
H353 C363 0.930 . S
C359 C360 1.382 . A
C360 C361 1.397 . A
C361 C362 1.385 . A
C362 C363 1.373 . A
C364 H374 0.930 . S
C364 C379 1.360 . A
C364 C383 1.379 . A
C365 C366 1.369 . A
C365 C370 1.388 . A
C366 C367 1.395 . A
C366 H375 0.931 . S
C367 C368 1.390 . A
C367 C381 1.491 . S
C368 C369 1.387 . A
C368 H376 0.931 . S
C369 C370 1.377 . A
C369 H377 0.931 . S
C370 H378 0.930 . S
H371 C380 0.929 . S
H372 C382 0.930 . S
H373 C383 0.930 . S
C379 C380 1.382 . A
C380 C381 1.397 . A
C381 C382 1.385 . A
C382 C383 1.373 . A
C384 H394 0.930 . S
C384 C399 1.360 . A
C384 C403 1.379 . A
C385 C386 1.369 . A
C385 C390 1.388 . A
C386 C387 1.395 . A
C386 H395 0.931 1_545 S
C387 C388 1.390 . A
C387 C401 1.491 1_545 S
C388 C389 1.387 . A
C388 H396 0.931 . S
C389 C390 1.377 . A
C389 H397 0.931 . S
C390 H398 0.930 . S
H391 C400 0.929 . S
H392 C402 0.930 . S
H393 C403 0.930 . S
C399 C400 1.382 1_565 A
C400 C401 1.397 1_545 A
C401 C402 1.385 . A
C402 C403 1.373 . A
C404 H414 0.930 . S
C404 C419 1.360 . A
C404 C423 1.379 . A
C405 C406 1.369 . A
C405 C410 1.388 . A
C406 C407 1.395 . A
C406 H415 0.931 . S
C407 C408 1.390 . A
C407 C421 1.491 . S
C408 C409 1.387 . A
C408 H416 0.931 . S
C409 C410 1.377 . A
C409 H417 0.931 . S
C410 H418 0.930 . S
H411 C420 0.929 . S
H412 C422 0.930 . S
H413 C423 0.930 . S
C419 C420 1.382 . A
C420 C421 1.397 . A
C421 C422 1.385 . A
C422 C423 1.373 . A
C424 H434 0.930 . S
C424 C439 1.360 . A
C424 C443 1.379 . A
C425 C426 1.369 . A
C425 C430 1.388 . A
C426 C427 1.395 . A
C426 H435 0.931 . S
C427 C428 1.390 . A
C427 C441 1.491 . S
C428 C429 1.387 . A
C428 H436 0.931 . S
C429 C430 1.377 . A
C429 H437 0.931 . S
C430 H438 0.930 . S
H431 C440 0.929 . S
H432 C442 0.930 . S
H433 C443 0.930 . S
C439 C440 1.382 . A
C440 C441 1.397 . A
C441 C442 1.385 . A
C442 C443 1.373 . A
C444 H454 0.930 . S
C444 C459 1.360 . A
C444 C463 1.379 . A
C445 C446 1.369 . A
C445 C450 1.388 . A
C446 C447 1.395 . A
C446 H455 0.931 . S
C447 C448 1.390 . A
C447 C461 1.491 . S
C448 C449 1.387 . A
C448 H456 0.931 . S
C449 C450 1.377 . A
C449 H457 0.931 1_655 S
C450 H458 0.930 . S
H451 C460 0.929 . S
H452 C462 0.930 . S
H453 C463 0.930 . S
C459 C460 1.382 . A
C460 C461 1.397 . A
C461 C462 1.385 . A
C462 C463 1.373 . A
C464 H474 0.930 . S
C464 C479 1.360 . A
C464 C483 1.379 . A
C465 C466 1.369 . A
C465 C470 1.388 . A
C466 C467 1.395 . A
C466 H475 0.931 . S
C467 C468 1.390 . A
C467 C481 1.491 . S
C468 C469 1.387 . A
C468 H476 0.931 . S
C469 C470 1.377 . A
C469 H477 0.931 . S
C470 H478 0.930 . S
H471 C480 0.929 . S
H472 C482 0.930 . S
H473 C483 0.930 . S
C479 C480 1.382 . A
C480 C481 1.397 . A
C481 C482 1.385 . A
C482 C483 1.373 . A
C484 H494 0.930 . S
C484 C499 1.360 . A
C484 C503 1.379 . A
C485 C486 1.369 . A
C485 C490 1.388 . A
C486 C487 1.395 . A
C486 H495 0.931 . S
C487 C488 1.390 . A
C487 C501 1.491 . S
C488 C489 1.387 . A
C488 H496 0.931 . S
C489 C490 1.377 . A
C489 H497 0.931 . S
C490 H498 0.930 . S
H491 C500 0.929 . S
H492 C502 0.930 . S
H493 C503 0.930 . S
C499 C500 1.382 . A
C500 C501 1.397 . A
C501 C502 1.385 . A
C502 C503 1.373 . A
C504 H514 0.930 . S
C504 C519 1.360 . A
C504 C523 1.379 . A
C505 C506 1.371 . A
C505 C510 1.388 . A
C506 C507 1.395 . A
C506 H515 0.928 1_545 S
C507 C508 1.390 . A
C507 C521 1.491 1_545 S
C508 C509 1.387 . A
C508 H516 0.931 . S
C509 C510 1.377 . A
C509 H517 0.931 . S
C510 H518 0.930 . S
H511 C520 0.929 . S
H512 C522 0.930 . S
H513 C523 0.930 . S
C519 C520 1.382 1_565 A
C520 C521 1.397 1_545 A
C521 C522 1.385 . A
C522 C523 1.373 . A
C524 H534 0.930 . S
C524 C539 1.360 . A
C524 C543 1.379 . A
C525 C526 1.369 . A
C525 C530 1.388 . A
C526 C527 1.395 . A
C526 H535 0.931 . S
C527 C528 1.390 . A
C527 C541 1.491 . S
C528 C529 1.387 . A
C528 H536 0.931 . S
C529 C530 1.377 . A
C529 H537 0.931 . S
C530 H538 0.930 . S
H531 C540 0.929 . S
H532 C542 0.930 . S
H533 C543 0.930 . S
C539 C540 1.382 . A
C540 C541 1.397 . A
C541 C542 1.385 . A
C542 C543 1.373 . A
C544 H554 0.933 . S
C544 C559 1.360 . A
C544 C563 1.379 . A
C545 C546 1.369 . A
C545 C550 1.388 . A
C546 C547 1.395 . A
C546 H555 0.931 . S
C547 C548 1.390 . A
C547 C561 1.491 . S
C548 C549 1.387 . A
C548 H556 0.931 . S
C549 C550 1.377 . A
C549 H557 0.931 . S
C550 H558 0.930 . S
H551 C560 0.929 . S
H552 C562 0.930 . S
H553 C563 0.930 . S
C559 C560 1.382 . A
C560 C561 1.397 . A
C561 C562 1.385 . A
C562 C563 1.373 . A
C564 H574 0.930 . S
C564 C579 1.360 1_565 A
C564 C583 1.379 . A
C565 C566 1.369 . A
C565 C570 1.388 . A
C566 C567 1.395 . A
C566 H575 0.931 1_545 S
C567 C568 1.390 . A
C567 C581 1.491 1_545 S
C568 C569 1.387 . A
C568 H576 0.931 . S
C569 C570 1.377 . A
C569 H577 0.931 . S
C570 H578 0.930 . S
H571 C580 0.929 . S
H572 C582 0.930 . S
H573 C583 0.930 . S
C579 C580 1.382 . A
C580 C581 1.397 1_545 A
C581 C582 1.385 . A
C582 C583 1.373 . A
C584 H594 0.930 . S
C584 C599 1.360 . A
C584 C603 1.379 . A
C585 C586 1.369 . A
C585 C590 1.388 . A
C586 C587 1.395 . A
C586 H595 0.931 . S
C587 C588 1.390 . A
C587 C601 1.491 . S
C588 C589 1.387 . A
C588 H596 0.931 . S
C589 C590 1.377 . A
C589 H597 0.931 1_556 S
C590 H598 0.930 1_556 S
H591 C600 0.929 . S
H592 C602 0.930 . S
H593 C603 0.930 . S
C599 C600 1.382 . A
C600 C601 1.397 . A
C601 C602 1.385 . A
C602 C603 1.373 . A
C604 H614 0.930 . S
C604 C619 1.360 . A
C604 C623 1.379 . A
C605 C606 1.369 . A
C605 C610 1.388 . A
C606 C607 1.395 . A
C606 H615 0.931 . S
C607 C608 1.390 . A
C607 C621 1.491 . S
C608 C609 1.387 . A
C608 H616 0.931 . S
C609 C610 1.377 . A
C609 H617 0.931 . S
C610 H618 0.930 . S
H611 C620 0.929 . S
H612 C622 0.930 . S
H613 C623 0.930 . S
C619 C620 1.382 . A
C620 C621 1.397 . A
C621 C622 1.385 . A
C622 C623 1.373 . A
C624 H634 0.930 . S
C624 C639 1.360 . A
C624 C643 1.379 . A
C625 C626 1.369 . A
C625 C630 1.388 . A
C626 C627 1.395 . A
C626 H635 0.931 . S
C627 C628 1.390 . A
C627 C641 1.491 . S
C628 C629 1.387 . A
C628 H636 0.931 . S
C629 C630 1.377 . A
C629 H637 0.931 . S
C630 H638 0.930 . S
H631 C640 0.929 . S
H632 C642 0.930 . S
H633 C643 0.930 . S
C639 C640 1.382 . A
C640 C641 1.397 . A
C641 C642 1.385 . A
C642 C643 1.373 . A
C644 H654 0.930 . S
C644 C659 1.360 . A
C644 C663 1.379 . A
C645 C646 1.369 . A
C645 C650 1.388 . A
C646 C647 1.395 . A
C646 H655 0.931 . S
C647 C648 1.390 . A
C647 C661 1.491 . S
C648 C649 1.387 . A
C648 H656 0.931 . S
C649 C650 1.377 . A
C649 H657 0.919 1_655 S
C650 H658 0.930 . S
H651 C660 0.929 . S
H652 C662 0.930 . S
H653 C663 0.930 . S
C659 C660 1.382 . A
C660 C661 1.397 . A
C661 C662 1.385 . A
C662 C663 1.373 . A
C664 H674 0.930 . S
C664 C679 1.386 . A
C664 C683 1.379 . A
C665 C666 1.369 . A
C665 C670 1.388 . A
C666 C667 1.395 . A
C666 H675 0.931 1_545 S
C667 C668 1.390 . A
C667 C681 1.491 . S
C668 C669 1.387 . A
C668 H676 0.931 . S
C669 C670 1.377 . A
C669 H677 0.931 . S
C670 H678 0.930 . S
H671 C680 0.929 . S
H672 C682 0.930 . S
H673 C683 0.930 . S
C679 C680 1.366 1_565 A
C680 C681 1.397 . A
C681 C682 1.385 1_545 A
C682 C683 1.373 . A
C684 H694 0.930 . S
C684 C699 1.360 . A
C684 C703 1.379 . A
C685 C686 1.369 . A
C685 C690 1.388 . A
C686 C687 1.395 . A
C686 H695 0.931 . S
C687 C688 1.390 . A
C687 C701 1.491 . S
C688 C689 1.387 . A
C688 H696 0.931 . S
C689 C690 1.377 . A
C689 H697 0.931 . S
C690 H698 0.930 . S
H691 C700 0.929 . S
H692 C702 0.930 . S
H693 C703 0.930 . S
C699 C700 1.382 . A
C700 C701 1.397 . A
C701 C702 1.385 . A
C702 C703 1.373 . A
C704 H714 0.930 . S
C704 C719 1.360 . A
C704 C723 1.379 . A
C705 C706 1.369 . A
C705 C710 1.388 . A
C706 C707 1.395 . A
C706 H715 0.931 . S
C707 C708 1.390 . A
C707 C721 1.491 . S
C708 C709 1.387 . A
C708 H716 0.931 . S
C709 C710 1.377 . A
C709 H717 0.931 . S
C710 H718 0.930 . S
H711 C720 0.929 . S
H712 C722 0.930 . S
H713 C723 0.930 . S
C719 C720 1.382 . A
C720 C721 1.397 . A
C721 C722 1.385 . A
C722 C723 1.373 . A
C724 H734 0.930 . S
C724 C739 1.360 . A
C724 C743 1.379 . A
C725 C726 1.369 . A
C725 C730 1.388 . A
C726 C727 1.395 . A
C726 H735 0.931 . S
C727 C728 1.390 . A
C727 C741 1.491 . S
C728 C729 1.387 . A
C728 H736 0.931 . S
C729 C730 1.377 . A
C729 H737 0.931 . S
C730 H738 0.930 . S
H731 C740 0.929 1_565 S
H732 C742 0.930 . S
H733 C743 0.930 . S
C739 C740 1.382 . A
C740 C741 1.397 . A
C741 C742 1.385 . A
C742 C743 1.373 . A
C744 H754 0.930 . S
C744 C759 1.360 . A
C744 C763 1.379 . A
C745 C746 1.369 . A
C745 C750 1.388 . A
C746 C747 1.395 . A
C746 H755 0.931 . S
C747 C748 1.390 . A
C747 C761 1.491 . S
C748 C749 1.387 . A
C748 H756 0.931 . S
C749 C750 1.377 . A
C749 H757 0.931 . S
C750 H758 0.930 . S
H751 C760 0.929 . S
H752 C762 0.930 . S
H753 C763 0.930 . S
C759 C760 1.382 . A
C760 C761 1.397 . A
C761 C762 1.385 . A
C762 C763 1.373 . A
C764 H774 0.930 . S
C764 C779 1.360 . A
C764 C783 1.379 . A
C765 C766 1.369 . A
C765 C770 1.388 . A
C766 C767 1.395 . A
C766 H775 0.931 . S
C767 C768 1.390 . A
C767 C781 1.491 . S
C768 C769 1.387 . A
C768 H776 0.931 . S
C769 C770 1.377 . A
C769 H777 0.931 . S
C770 H778 0.930 . S
H771 C780 0.929 . S
H772 C782 0.930 . S
H773 C783 0.930 . S
C779 C780 1.382 . A
C780 C781 1.397 . A
C781 C782 1.385 . A
C782 C783 1.373 . A
C319 C118 1.680 . S
C305 C77 1.582 . S
C325 C51 1.402 . S
C339 C171 1.263 . S
C345 C103 1.817 . S
C359 C218 1.755 . S
C365 C21 1.295 . S
C379 C268 1.350 . S
C385 C90 1.433 . S
C399 C168 1.272 . S
C419 C221 1.260 . S
C405 C12 1.443 . S
C439 C271 1.268 . S
C425 C60 1.225 . S
C459 C121 1.336 . S
C445 C38 1.449 . S
C479 C116 1.471 . S
C465 C25 1.519 . S
C485 C34 1.228 . S
C499 C165 1.170 . S
C505 C86 1.378 . S
C519 C216 1.474 1_565 S
C525 C99 1.602 . S
C539 C266 1.561 . S
C545 C73 1.563 . S
C559 C166 1.523 . S
C565 C47 1.358 . S
C579 C215 1.319 1_545 S
C599 C265 1.399 . S
C585 C8 1.283 . S
C619 C115 1.336 . S
C605 C64 1.434 . S
C625 C24 1.470 . S
C639 C120 1.501 . S
C659 C169 1.553 . S
C645 C31 1.459 . S
C679 C220 1.495 1_565 S
C665 C83 1.406 . S
C685 C96 1.747 . S
C699 C270 1.753 . S
C719 C170 1.768 . S
C705 C70 1.728 . S
C725 C44 1.500 . S
C739 C219 1.555 1_545 S
C745 C5 1.456 . S
C759 C269 1.554 . S
C765 C63 1.411 . S
C779 C119 1.458 . S
