# Generated by pormake.
# Topology pcb, (4)-cn, num edge types: 1
# Building blocks:
#     Node 0, Type 0, BuildingBlock: N172, # of connection points: 5
#     Node 1, Type 0, BuildingBlock: N172, # of connection points: 5
#     Node 2, Type 0, BuildingBlock: N172, # of connection points: 5
#     Node 3, Type 0, BuildingBlock: N172, # of connection points: 5
#     Node 4, Type 0, BuildingBlock: N172, # of connection points: 5
#     Node 5, Type 0, BuildingBlock: N172, # of connection points: 5
#     Node 6, Type 0, BuildingBlock: N172, # of connection points: 5
#     Node 7, Type 0, BuildingBlock: N172, # of connection points: 5
#     Node 8, Type 0, BuildingBlock: N172, # of connection points: 5
#     Node 9, Type 0, BuildingBlock: N172, # of connection points: 5
#     Node 10, Type 0, BuildingBlock: N172, # of connection points: 5
#     Node 11, Type 0, BuildingBlock: N172, # of connection points: 5
#     Node 12, Type 0, BuildingBlock: N172, # of connection points: 5
#     Node 13, Type 0, BuildingBlock: N172, # of connection points: 5
#     Node 14, Type 0, BuildingBlock: N172, # of connection points: 5
#     Node 15, Type 0, BuildingBlock: N172, # of connection points: 5
#     Edge 16, Type (0, 0), BuildingBlock: E172, # of connection points: 2
#     Edge 17, Type (0, 0), BuildingBlock: E172, # of connection points: 2
#     Edge 18, Type (0, 0), BuildingBlock: E172, # of connection points: 2
#     Edge 19, Type (0, 0), BuildingBlock: E172, # of connection points: 2
#     Edge 20, Type (0, 0), BuildingBlock: E172, # of connection points: 2
#     Edge 21, Type (0, 0), BuildingBlock: E172, # of connection points: 2
#     Edge 22, Type (0, 0), BuildingBlock: E172, # of connection points: 2
#     Edge 23, Type (0, 0), BuildingBlock: E172, # of connection points: 2
#     Edge 24, Type (0, 0), BuildingBlock: E172, # of connection points: 2
#     Edge 25, Type (0, 0), BuildingBlock: E172, # of connection points: 2
#     Edge 26, Type (0, 0), BuildingBlock: E172, # of connection points: 2
#     Edge 27, Type (0, 0), BuildingBlock: E172, # of connection points: 2
#     Edge 28, Type (0, 0), BuildingBlock: E172, # of connection points: 2
#     Edge 29, Type (0, 0), BuildingBlock: E172, # of connection points: 2
#     Edge 30, Type (0, 0), BuildingBlock: E172, # of connection points: 2
#     Edge 31, Type (0, 0), BuildingBlock: E172, # of connection points: 2
#     Edge 32, Type (0, 0), BuildingBlock: E172, # of connection points: 2
#     Edge 33, Type (0, 0), BuildingBlock: E172, # of connection points: 2
#     Edge 34, Type (0, 0), BuildingBlock: E172, # of connection points: 2
#     Edge 35, Type (0, 0), BuildingBlock: E172, # of connection points: 2
#     Edge 36, Type (0, 0), BuildingBlock: E172, # of connection points: 2
#     Edge 37, Type (0, 0), BuildingBlock: E172, # of connection points: 2
#     Edge 38, Type (0, 0), BuildingBlock: E172, # of connection points: 2
#     Edge 39, Type (0, 0), BuildingBlock: E172, # of connection points: 2
#     Edge 40, Type (0, 0), BuildingBlock: E172, # of connection points: 2
#     Edge 41, Type (0, 0), BuildingBlock: E172, # of connection points: 2
#     Edge 42, Type (0, 0), BuildingBlock: E172, # of connection points: 2
#     Edge 43, Type (0, 0), BuildingBlock: E172, # of connection points: 2
#     Edge 44, Type (0, 0), BuildingBlock: E172, # of connection points: 2
#     Edge 45, Type (0, 0), BuildingBlock: E172, # of connection points: 2
#     Edge 46, Type (0, 0), BuildingBlock: E172, # of connection points: 2
#     Edge 47, Type (0, 0), BuildingBlock: E172, # of connection points: 2
# Relax obj value: 0.046
# Max RMSD: 0.170
# Mean RMSD: 0.146
data_pcb+N172+E172
_symmetry_space_group_name_H-M    P1
_symmetry_Int_Tables_number       1
_symmetry_cell_setting            triclinic
loop_
_symmetry_equiv_pos_as_xyz
'x, y, z'
_cell_length_a     47.544
_cell_length_b     47.544
_cell_length_c     47.550
_cell_angle_alpha  90.605
_cell_angle_beta   90.605
_cell_angle_gamma  93.208
loop_
_atom_site_label
_atom_site_type_symbol
_atom_site_fract_x
_atom_site_fract_y
_atom_site_fract_z
_atom_type_partial_charge
O0 O 0.77807 0.12219 0.83996 0.00000
O1 O 0.77063 0.15509 0.87330 0.00000
Zn2 Zn 0.79840 0.18671 0.86849 0.00000
Zn3 Zn 0.80894 0.13969 0.81436 0.00000
O4 O 0.82676 0.16326 0.84831 0.00000
Zn5 Zn 0.84601 0.13730 0.87245 0.00000
C6 C 0.82244 0.15693 0.92240 0.00000
O7 O 0.88665 0.14263 0.86544 0.00000
C8 C 0.83264 0.08853 0.84295 0.00000
O9 O 0.83985 0.13959 0.91288 0.00000
O10 O 0.81414 0.17782 0.91037 0.00000
O11 O 0.88320 0.18241 0.84244 0.00000
C12 C 0.77605 0.19199 0.80892 0.00000
O13 O 0.78530 0.17051 0.79951 0.00000
O14 O 0.78013 0.20244 0.83268 0.00000
C15 C 0.76504 0.13100 0.86107 0.00000
C16 C 0.89558 0.16226 0.85014 0.00000
H17 H 0.84139 0.17660 0.84052 0.00000
O18 O 0.83383 0.10451 0.82242 0.00000
O19 O 0.83616 0.09687 0.86824 0.00000
O20 O 0.88642 0.21561 0.16750 0.00000
O21 O 0.85226 0.22383 0.13574 0.00000
Zn22 Zn 0.82027 0.19687 0.14205 0.00000
Zn23 Zn 0.86941 0.18522 0.19393 0.00000
O24 O 0.84386 0.16791 0.16113 0.00000
Zn25 Zn 0.86811 0.14792 0.13578 0.00000
C26 C 0.84679 0.17191 0.08677 0.00000
O27 O 0.86209 0.10739 0.14305 0.00000
C28 C 0.91844 0.16010 0.16296 0.00000
O29 O 0.86407 0.15406 0.09548 0.00000
O30 O 0.82675 0.18079 0.09979 0.00000
O31 O 0.82362 0.11192 0.16792 0.00000
C32 C 0.81837 0.21951 0.20182 0.00000
O33 O 0.83999 0.20971 0.21022 0.00000
O34 O 0.80673 0.21565 0.17858 0.00000
C35 C 0.87698 0.22883 0.14682 0.00000
C36 C 0.84302 0.09899 0.15928 0.00000
H37 H 0.83056 0.15363 0.16954 0.00000
O38 O 0.90346 0.15937 0.18423 0.00000
O39 O 0.90885 0.15673 0.13808 0.00000
O40 O 0.86430 0.84632 0.20788 0.00000
O41 O 0.83587 0.88183 0.21664 0.00000
Zn42 Zn 0.80664 0.88129 0.18720 0.00000
Zn43 Zn 0.84631 0.82406 0.17420 0.00000
O44 O 0.82976 0.86082 0.15839 0.00000
Zn45 Zn 0.86101 0.88372 0.14264 0.00000
C46 C 0.84655 0.93374 0.16948 0.00000
O47 O 0.85881 0.87949 0.10147 0.00000
C48 C 0.90363 0.84951 0.15560 0.00000
O49 O 0.86409 0.92379 0.15220 0.00000
O50 O 0.82322 0.92307 0.17568 0.00000
O51 O 0.81564 0.85978 0.10101 0.00000
C52 C 0.79033 0.82123 0.20388 0.00000
O53 O 0.81117 0.81058 0.19489 0.00000
O54 O 0.78390 0.84597 0.20143 0.00000
C55 C 0.85737 0.86733 0.22224 0.00000
C56 C 0.83800 0.86643 0.09035 0.00000
H57 H 0.81688 0.85503 0.14258 0.00000
O58 O 0.88489 0.83051 0.15187 0.00000
O59 O 0.89946 0.87556 0.15393 0.00000
O60 O 0.10838 0.77947 0.16645 0.00000
O61 O 0.13975 0.76919 0.13304 0.00000
Zn62 Zn 0.17259 0.79585 0.13701 0.00000
Zn63 Zn 0.12795 0.81073 0.19126 0.00000
O64 O 0.15108 0.82610 0.15677 0.00000
Zn65 Zn 0.12522 0.84543 0.13244 0.00000
C66 C 0.14216 0.81886 0.08286 0.00000
O67 O 0.13247 0.88619 0.13854 0.00000
C68 C 0.07702 0.83539 0.16259 0.00000
O69 O 0.12592 0.83743 0.09214 0.00000
O70 O 0.16302 0.81018 0.09490 0.00000
O71 O 0.17272 0.88204 0.16129 0.00000
C72 C 0.17887 0.77582 0.19697 0.00000
O73 O 0.15816 0.78640 0.20635 0.00000
O74 O 0.18868 0.77843 0.17306 0.00000
C75 C 0.11592 0.76514 0.14556 0.00000
C76 C 0.15291 0.89496 0.15349 0.00000
H77 H 0.16524 0.84052 0.16413 0.00000
O78 O 0.09366 0.83679 0.18295 0.00000
O79 O 0.08465 0.83748 0.13718 0.00000
O80 O 0.20495 0.10894 0.16630 0.00000
O81 O 0.21654 0.14068 0.13272 0.00000
Zn82 Zn 0.19232 0.17250 0.13679 0.00000
Zn83 Zn 0.17577 0.12736 0.19126 0.00000
O84 O 0.16104 0.14980 0.15682 0.00000
Zn85 Zn 0.13914 0.12306 0.13269 0.00000
C86 C 0.16555 0.14094 0.08288 0.00000
O87 O 0.09902 0.12870 0.13906 0.00000
C88 C 0.14659 0.07529 0.16290 0.00000
O89 O 0.14605 0.12396 0.09234 0.00000
O90 O 0.17608 0.16222 0.09481 0.00000
O91 O 0.10672 0.16925 0.16167 0.00000
C92 C 0.21454 0.17978 0.19659 0.00000
O93 O 0.20273 0.15864 0.20610 0.00000
O94 O 0.21194 0.18942 0.17268 0.00000
C95 C 0.21924 0.11700 0.14528 0.00000
C96 C 0.09213 0.14886 0.15402 0.00000
H97 H 0.14784 0.16343 0.16424 0.00000
O98 O 0.14697 0.09196 0.18323 0.00000
O99 O 0.14432 0.08276 0.13749 0.00000
O100 O 0.84042 0.87194 0.79437 0.00000
O101 O 0.87531 0.84274 0.78582 0.00000
Zn102 Zn 0.87426 0.81364 0.81477 0.00000
Zn103 Zn 0.81792 0.85454 0.82735 0.00000
O104 O 0.85435 0.83734 0.84357 0.00000
Zn105 Zn 0.87787 0.86825 0.86026 0.00000
C106 C 0.92748 0.85265 0.83413 0.00000
O107 O 0.87371 0.86634 0.90132 0.00000
C108 C 0.84451 0.91151 0.84736 0.00000
O109 O 0.91792 0.87049 0.85151 0.00000
O110 O 0.91634 0.82948 0.82735 0.00000
O111 O 0.85317 0.82352 0.90072 0.00000
C112 C 0.81391 0.79842 0.79669 0.00000
O113 O 0.80371 0.81953 0.80583 0.00000
O114 O 0.83850 0.79150 0.79951 0.00000
C115 C 0.86123 0.86451 0.78029 0.00000
C116 C 0.86028 0.84583 0.91186 0.00000
H117 H 0.84835 0.82463 0.85907 0.00000
O118 O 0.82517 0.89314 0.85043 0.00000
O119 O 0.87045 0.90684 0.84944 0.00000
O120 O 0.21516 0.88212 0.83678 0.00000
O121 O 0.22279 0.84894 0.86922 0.00000
Zn122 Zn 0.19480 0.81750 0.86324 0.00000
Zn123 Zn 0.18391 0.86499 0.81039 0.00000
O124 O 0.16635 0.84126 0.84348 0.00000
Zn125 Zn 0.14753 0.86716 0.86820 0.00000
C126 C 0.17155 0.84703 0.91780 0.00000
O127 O 0.10679 0.86210 0.86067 0.00000
C128 C 0.16084 0.91608 0.84024 0.00000
O129 O 0.15414 0.86454 0.90862 0.00000
O130 O 0.17959 0.82617 0.90523 0.00000
O131 O 0.10975 0.82247 0.83654 0.00000
C132 C 0.21643 0.81252 0.80373 0.00000
O133 O 0.20719 0.83413 0.79486 0.00000
O134 O 0.21256 0.80192 0.82714 0.00000
C135 C 0.22838 0.87309 0.85775 0.00000
C136 C 0.09757 0.84263 0.84472 0.00000
H137 H 0.15155 0.82805 0.83518 0.00000
O138 O 0.15932 0.90025 0.81924 0.00000
O139 O 0.15756 0.90758 0.86525 0.00000
O140 O 0.15380 0.13640 0.79104 0.00000
O141 O 0.11879 0.16597 0.78447 0.00000
Zn142 Zn 0.12182 0.19506 0.81406 0.00000
Zn143 Zn 0.17833 0.15356 0.82359 0.00000
O144 O 0.14309 0.17114 0.84153 0.00000
Zn145 Zn 0.12022 0.14044 0.85832 0.00000
C146 C 0.06937 0.15656 0.83439 0.00000
O147 O 0.12676 0.14230 0.89922 0.00000
C148 C 0.15232 0.09682 0.84316 0.00000
O149 O 0.07971 0.13861 0.85097 0.00000
O150 O 0.08035 0.17963 0.82777 0.00000
O151 O 0.14769 0.18493 0.89891 0.00000
C152 C 0.18119 0.20969 0.79418 0.00000
O153 O 0.19167 0.18845 0.80242 0.00000
O154 O 0.15688 0.21685 0.79805 0.00000
C155 C 0.13230 0.14404 0.77792 0.00000
C156 C 0.14099 0.16268 0.90977 0.00000
H157 H 0.15010 0.18378 0.85711 0.00000
O158 O 0.17200 0.11501 0.84597 0.00000
O159 O 0.12659 0.10176 0.84630 0.00000
O160 O 0.65368 0.63570 0.29212 0.00000
O161 O 0.61817 0.66413 0.28336 0.00000
Zn162 Zn 0.61871 0.69336 0.31280 0.00000
Zn163 Zn 0.67594 0.65369 0.32580 0.00000
O164 O 0.63918 0.67024 0.34161 0.00000
Zn165 Zn 0.61628 0.63899 0.35736 0.00000
C166 C 0.56626 0.65345 0.33052 0.00000
O167 O 0.62051 0.64119 0.39853 0.00000
C168 C 0.65049 0.59637 0.34440 0.00000
O169 O 0.57621 0.63591 0.34780 0.00000
O170 O 0.57693 0.67678 0.32432 0.00000
O171 O 0.64022 0.68436 0.39900 0.00000
C172 C 0.67877 0.70967 0.29612 0.00000
O173 O 0.68942 0.68883 0.30511 0.00000
O174 O 0.65403 0.71610 0.29857 0.00000
C175 C 0.63267 0.64263 0.27776 0.00000
C176 C 0.63357 0.66200 0.40965 0.00000
H177 H 0.64497 0.68312 0.35742 0.00000
O178 O 0.66949 0.61511 0.34813 0.00000
O179 O 0.62444 0.60054 0.34607 0.00000
O180 O 0.28439 0.61358 0.33250 0.00000
O181 O 0.27617 0.64774 0.36426 0.00000
Zn182 Zn 0.30313 0.67973 0.35795 0.00000
Zn183 Zn 0.31478 0.63059 0.30607 0.00000
O184 O 0.33209 0.65614 0.33887 0.00000
Zn185 Zn 0.35208 0.63189 0.36422 0.00000
C186 C 0.32809 0.65321 0.41323 0.00000
O187 O 0.39261 0.63791 0.35695 0.00000
C188 C 0.33990 0.58156 0.33704 0.00000
O189 O 0.34594 0.63593 0.40452 0.00000
O190 O 0.31921 0.67325 0.40021 0.00000
O191 O 0.38808 0.67638 0.33208 0.00000
C192 C 0.28049 0.68163 0.29818 0.00000
O193 O 0.29029 0.66001 0.28978 0.00000
O194 O 0.28435 0.69326 0.32142 0.00000
C195 C 0.27117 0.62302 0.35318 0.00000
C196 C 0.40101 0.65698 0.34072 0.00000
H197 H 0.34637 0.66944 0.33046 0.00000
O198 O 0.34063 0.59654 0.31578 0.00000
O199 O 0.34327 0.59115 0.36192 0.00000
O200 O 0.39106 0.29505 0.33370 0.00000
O201 O 0.35932 0.28346 0.36728 0.00000
Zn202 Zn 0.32750 0.30768 0.36321 0.00000
Zn203 Zn 0.37264 0.32424 0.30874 0.00000
O204 O 0.35020 0.33896 0.34318 0.00000
Zn205 Zn 0.37694 0.36086 0.36731 0.00000
C206 C 0.35906 0.33445 0.41712 0.00000
O207 O 0.37130 0.40098 0.36094 0.00000
C208 C 0.42471 0.35341 0.33710 0.00000
O209 O 0.37604 0.35395 0.40766 0.00000
O210 O 0.33778 0.32392 0.40519 0.00000
O211 O 0.33075 0.39328 0.33833 0.00000
C212 C 0.32022 0.28546 0.30341 0.00000
O213 O 0.34136 0.29728 0.29390 0.00000
O214 O 0.31058 0.28806 0.32732 0.00000
C215 C 0.38300 0.28076 0.35472 0.00000
C216 C 0.35114 0.40787 0.34598 0.00000
H217 H 0.33657 0.35216 0.33576 0.00000
O218 O 0.40804 0.35303 0.31677 0.00000
O219 O 0.41724 0.35568 0.36251 0.00000
O220 O 0.62806 0.65958 0.70563 0.00000
O221 O 0.65726 0.62469 0.71418 0.00000
Zn222 Zn 0.68636 0.62574 0.68523 0.00000
Zn223 Zn 0.64546 0.68208 0.67265 0.00000
O224 O 0.66266 0.64565 0.65643 0.00000
Zn225 Zn 0.63175 0.62213 0.63974 0.00000
C226 C 0.64735 0.57252 0.66587 0.00000
O227 O 0.63366 0.62629 0.59868 0.00000
C228 C 0.58849 0.65549 0.65264 0.00000
O229 O 0.62951 0.58208 0.64849 0.00000
O230 O 0.67052 0.58366 0.67265 0.00000
O231 O 0.67648 0.64683 0.59928 0.00000
C232 C 0.70159 0.68608 0.70331 0.00000
O233 O 0.68047 0.69629 0.69417 0.00000
O234 O 0.70850 0.66150 0.70049 0.00000
C235 C 0.63549 0.63877 0.71971 0.00000
C236 C 0.65417 0.63972 0.58814 0.00000
H237 H 0.67537 0.65165 0.64093 0.00000
O238 O 0.60686 0.67483 0.64957 0.00000
O239 O 0.59316 0.62955 0.65056 0.00000
O240 O 0.37781 0.72193 0.66004 0.00000
O241 O 0.34491 0.72937 0.62670 0.00000
Zn242 Zn 0.31329 0.70160 0.63151 0.00000
Zn243 Zn 0.36031 0.69106 0.68564 0.00000
O244 O 0.33674 0.67324 0.65169 0.00000
Zn245 Zn 0.36270 0.65399 0.62755 0.00000
C246 C 0.34307 0.67756 0.57760 0.00000
O247 O 0.35737 0.61336 0.63456 0.00000
C248 C 0.41147 0.66736 0.65705 0.00000
O249 O 0.36041 0.66015 0.58712 0.00000
O250 O 0.32218 0.68586 0.58963 0.00000
O251 O 0.31759 0.61680 0.65756 0.00000
C252 C 0.30801 0.72395 0.69108 0.00000
O253 O 0.32949 0.71470 0.70049 0.00000
O254 O 0.29756 0.71987 0.66732 0.00000
C255 C 0.36900 0.73496 0.63893 0.00000
C256 C 0.33774 0.60442 0.64986 0.00000
H257 H 0.32340 0.65861 0.65948 0.00000
O258 O 0.39549 0.66617 0.67758 0.00000
O259 O 0.40313 0.66384 0.63176 0.00000
O260 O 0.36360 0.34620 0.70896 0.00000
O261 O 0.33403 0.38121 0.71553 0.00000
Zn262 Zn 0.30494 0.37818 0.68594 0.00000
Zn263 Zn 0.34644 0.32167 0.67641 0.00000
O264 O 0.32886 0.35691 0.65847 0.00000
Zn265 Zn 0.35956 0.37978 0.64168 0.00000
C266 C 0.34344 0.43063 0.66561 0.00000
O267 O 0.35770 0.37324 0.60078 0.00000
C268 C 0.40318 0.34767 0.65684 0.00000
O269 O 0.36139 0.42029 0.64903 0.00000
O270 O 0.32037 0.41965 0.67223 0.00000
O271 O 0.31507 0.35231 0.60109 0.00000
C272 C 0.29031 0.31881 0.70582 0.00000
O273 O 0.31155 0.30833 0.69758 0.00000
O274 O 0.28315 0.34312 0.70195 0.00000
C275 C 0.35596 0.36770 0.72208 0.00000
C276 C 0.33732 0.35901 0.59023 0.00000
H277 H 0.31622 0.34990 0.64289 0.00000
O278 O 0.38499 0.32800 0.65403 0.00000
O279 O 0.39824 0.37341 0.65370 0.00000
O280 O 0.61788 0.28484 0.66322 0.00000
O281 O 0.65106 0.27721 0.63078 0.00000
Zn282 Zn 0.68250 0.30520 0.63676 0.00000
Zn283 Zn 0.63501 0.31609 0.68961 0.00000
O284 O 0.65874 0.33365 0.65652 0.00000
Zn285 Zn 0.63284 0.35247 0.63180 0.00000
C286 C 0.65297 0.32845 0.58220 0.00000
O287 O 0.63790 0.39321 0.63933 0.00000
C288 C 0.58392 0.33916 0.65976 0.00000
O289 O 0.63546 0.34586 0.59138 0.00000
O290 O 0.67383 0.32041 0.59477 0.00000
O291 O 0.67753 0.39026 0.66346 0.00000
C292 C 0.68747 0.28357 0.69627 0.00000
O293 O 0.66587 0.29281 0.70514 0.00000
O294 O 0.69808 0.28744 0.67286 0.00000
C295 C 0.62691 0.27162 0.64225 0.00000
C296 C 0.65737 0.40243 0.65528 0.00000
H297 H 0.67195 0.34845 0.66482 0.00000
O298 O 0.59975 0.34068 0.68076 0.00000
O299 O 0.59242 0.34244 0.63475 0.00000
O300 O 0.72053 0.39162 0.33355 0.00000
O301 O 0.73081 0.36025 0.36696 0.00000
Zn302 Zn 0.70415 0.32741 0.36299 0.00000
Zn303 Zn 0.68928 0.37205 0.30874 0.00000
O304 O 0.67390 0.34892 0.34323 0.00000
Zn305 Zn 0.65457 0.37478 0.36756 0.00000
C306 C 0.68114 0.35784 0.41714 0.00000
O307 O 0.61381 0.36753 0.36146 0.00000
C308 C 0.66461 0.42298 0.33741 0.00000
O309 O 0.66258 0.37408 0.40786 0.00000
O310 O 0.68982 0.33698 0.40510 0.00000
O311 O 0.61796 0.32728 0.33870 0.00000
C312 C 0.72419 0.32113 0.30303 0.00000
O313 O 0.71360 0.34184 0.29365 0.00000
O314 O 0.72157 0.31132 0.32694 0.00000
C315 C 0.73486 0.38408 0.35444 0.00000
C316 C 0.60504 0.34709 0.34651 0.00000
H317 H 0.65948 0.33476 0.33587 0.00000
O318 O 0.66321 0.40633 0.31705 0.00000
O319 O 0.66252 0.41535 0.36282 0.00000
O320 O 0.76036 0.21931 0.78216 0.00000
O321 O 0.73680 0.17885 0.79122 0.00000
Mn322 Mn 0.73211 0.23687 0.75101 0.00000
O323 O 0.70625 0.25658 0.72044 0.00000
C324 C 0.70450 0.28107 0.71156 0.00000
O325 O 0.72360 0.30055 0.71434 0.00000
C326 C 0.75852 0.19539 0.79269 0.00000
O327 O 0.80148 0.25090 0.22491 0.00000
O328 O 0.79082 0.20604 0.23468 0.00000
Mn329 Mn 0.77085 0.27146 0.25114 0.00000
O330 O 0.74208 0.29430 0.27603 0.00000
C331 C 0.74101 0.31921 0.28439 0.00000
O332 O 0.75474 0.34003 0.27387 0.00000
C333 C 0.80320 0.22518 0.22043 0.00000
O334 O 0.70359 0.74377 0.27644 0.00000
O335 O 0.71277 0.69915 0.26841 0.00000
Mn336 Mn 0.73660 0.76525 0.25145 0.00000
O337 O 0.76780 0.78893 0.22765 0.00000
C338 C 0.77045 0.81356 0.21874 0.00000
O339 O 0.75707 0.83394 0.22795 0.00000
C340 C 0.70046 0.71811 0.28146 0.00000
O341 O 0.26270 0.70644 0.26815 0.00000
O342 O 0.23784 0.68139 0.29931 0.00000
Mn343 Mn 0.22883 0.72668 0.24583 0.00000
O344 O 0.19774 0.74806 0.22234 0.00000
C345 C 0.19814 0.76893 0.20657 0.00000
O346 O 0.21993 0.77949 0.19475 0.00000
C347 C 0.26035 0.68790 0.28646 0.00000
O348 O 0.23441 0.20622 0.22935 0.00000
O349 O 0.25731 0.19109 0.19218 0.00000
Mn350 Mn 0.26856 0.23057 0.25141 0.00000
O351 O 0.30004 0.25526 0.27507 0.00000
C352 C 0.29968 0.27360 0.29407 0.00000
O353 O 0.27876 0.27767 0.30953 0.00000
C354 C 0.23617 0.19093 0.20806 0.00000
O355 O 0.73240 0.71807 0.71880 0.00000
O356 O 0.70625 0.69077 0.74705 0.00000
Mn357 Mn 0.75579 0.74485 0.74986 0.00000
O358 O 0.78026 0.77239 0.77804 0.00000
C359 C 0.80224 0.78788 0.77606 0.00000
O360 O 0.81266 0.79651 0.75312 0.00000
C361 C 0.71266 0.70033 0.72314 0.00000
O362 O 0.23409 0.78504 0.77826 0.00000
O363 O 0.24975 0.82991 0.77990 0.00000
Mn364 Mn 0.26148 0.76878 0.74580 0.00000
O365 O 0.28707 0.75008 0.71446 0.00000
C366 C 0.29285 0.72553 0.70805 0.00000
O367 O 0.27864 0.70354 0.71529 0.00000
C368 C 0.23217 0.81002 0.78588 0.00000
O369 O 0.26836 0.29388 0.73422 0.00000
O370 O 0.26094 0.28816 0.68830 0.00000
Mn371 Mn 0.23527 0.26470 0.75053 0.00000
O372 O 0.20389 0.23672 0.76931 0.00000
C373 C 0.20060 0.22593 0.79298 0.00000
O374 O 0.21301 0.23484 0.81528 0.00000
C375 C 0.27225 0.30090 0.70932 0.00000
O376 O 0.84800 0.95756 0.83251 0.00000
O377 O 0.81971 0.93264 0.86088 0.00000
Mn378 Mn 0.83292 0.99990 0.83944 0.00000
O379 O 0.82033 0.04228 0.84444 0.00000
C380 C 0.83120 0.06618 0.83928 0.00000
O381 O 0.85141 0.07096 0.82258 0.00000
C382 C 0.83767 0.93477 0.84153 0.00000
O383 O 0.96168 0.15596 0.15747 0.00000
O384 O 0.95765 0.20176 0.16462 0.00000
Mn385 Mn 0.00763 0.15445 0.15575 0.00000
O386 O 0.05232 0.14996 0.15382 0.00000
C387 C 0.06810 0.12994 0.15611 0.00000
O388 O 0.06008 0.10420 0.15366 0.00000
C389 C 0.94757 0.17725 0.15868 0.00000
O390 O 0.84632 0.06239 0.15670 0.00000
O391 O 0.87261 0.08084 0.19185 0.00000
Mn392 Mn 0.84989 0.01737 0.16452 0.00000
O393 O 0.85145 0.97263 0.16989 0.00000
C394 C 0.83707 0.95143 0.16124 0.00000
O395 O 0.82041 0.95112 0.14030 0.00000
C396 C 0.85917 0.08264 0.16894 0.00000
O397 O 0.03296 0.82580 0.16825 0.00000
O398 O 0.05030 0.84037 0.12742 0.00000
Mn399 Mn 0.98986 0.83961 0.16463 0.00000
O400 O 0.94700 0.85183 0.16371 0.00000
C401 C 0.92513 0.84493 0.17688 0.00000
O402 O 0.92466 0.83251 0.20029 0.00000
C403 C 0.05293 0.83085 0.15195 0.00000
O404 O 0.15235 0.93739 0.15204 0.00000
O405 O 0.11802 0.92181 0.18013 0.00000
Mn406 Mn 0.14851 0.98297 0.15619 0.00000
O407 O 0.14717 0.02807 0.15852 0.00000
C408 C 0.16381 0.04842 0.15277 0.00000
O409 O 0.18488 0.04701 0.13688 0.00000
C410 C 0.13637 0.91821 0.16161 0.00000
O411 O 0.05923 0.84727 0.83374 0.00000
O412 O 0.07504 0.87813 0.86636 0.00000
Mn413 Mn 0.01367 0.84975 0.83887 0.00000
O414 O 0.96858 0.85027 0.84156 0.00000
C415 C 0.94829 0.84263 0.82584 0.00000
O416 O 0.94960 0.82551 0.80541 0.00000
C417 C 0.07844 0.85864 0.84868 0.00000
O418 O 0.15772 0.81763 0.04414 0.00000
O419 O 0.12443 0.84465 0.05959 0.00000
Mn420 Mn 0.15800 0.82862 0.99990 0.00000
O421 O 0.16059 0.83762 0.95534 0.00000
C422 C 0.17834 0.83418 0.93659 0.00000
O423 O 0.19795 0.81732 0.93813 0.00000
C424 C 0.14100 0.82499 0.06247 0.00000
O425 O 0.83198 0.16999 0.95905 0.00000
O426 O 0.80218 0.13386 0.94796 0.00000
Mn427 Mn 0.83083 0.16827 0.00507 0.00000
O428 O 0.83183 0.16885 0.05029 0.00000
C429 C 0.84810 0.17957 0.06876 0.00000
O430 O 0.86614 0.19965 0.06467 0.00000
C431 C 0.81703 0.15576 0.94184 0.00000
O432 O 0.85799 0.85750 0.04665 0.00000
O433 O 0.82291 0.88329 0.06005 0.00000
Mn434 Mn 0.85232 0.85831 0.00010 0.00000
O435 O 0.84925 0.85757 0.95571 0.00000
C436 C 0.86544 0.85206 0.93612 0.00000
O437 O 0.88730 0.83829 0.93879 0.00000
C438 C 0.84226 0.86680 0.06494 0.00000
O439 O 0.16414 0.15488 0.03932 0.00000
O440 O 0.14966 0.11291 0.05536 0.00000
Mn441 Mn 0.15708 0.14814 0.99406 0.00000
O442 O 0.15102 0.14444 0.94927 0.00000
C443 C 0.14941 0.16140 0.92950 0.00000
O444 O 0.15807 0.18704 0.93072 0.00000
C445 C 0.16183 0.13708 0.05833 0.00000
O446 O 0.63526 0.64095 0.45350 0.00000
O447 O 0.64641 0.68452 0.43953 0.00000
Mn448 Mn 0.64164 0.64601 0.49903 0.00000
O449 O 0.64689 0.64809 0.54399 0.00000
C450 C 0.63870 0.63311 0.56407 0.00000
O451 O 0.62979 0.60759 0.56183 0.00000
C452 C 0.64093 0.65858 0.43488 0.00000
O453 O 0.34069 0.66687 0.54053 0.00000
O454 O 0.32270 0.70712 0.55322 0.00000
Mn455 Mn 0.33164 0.66669 0.49523 0.00000
O456 O 0.32426 0.66398 0.45056 0.00000
C457 C 0.33403 0.65027 0.43072 0.00000
O458 O 0.34732 0.62813 0.43354 0.00000
C459 C 0.33283 0.68376 0.55866 0.00000
O460 O 0.34263 0.35503 0.54901 0.00000
O461 O 0.37733 0.33395 0.57033 0.00000
Mn462 Mn 0.35243 0.34655 0.50489 0.00000
O463 O 0.35953 0.33955 0.46084 0.00000
C464 C 0.34496 0.34066 0.43889 0.00000
O465 O 0.32242 0.35346 0.43679 0.00000
C466 C 0.35700 0.34995 0.57024 0.00000
O467 O 0.45497 0.66571 0.65224 0.00000
O468 O 0.44642 0.70714 0.67130 0.00000
Mn469 Mn 0.50091 0.66644 0.65706 0.00000
O470 O 0.54586 0.66434 0.66066 0.00000
C471 C 0.56268 0.64510 0.65952 0.00000
O472 O 0.55705 0.62097 0.64873 0.00000
C473 C 0.43917 0.68517 0.65728 0.00000
O474 O 0.33593 0.47471 0.66894 0.00000
O475 O 0.36228 0.45522 0.63664 0.00000
Mn476 Mn 0.34552 0.51947 0.66063 0.00000
O477 O 0.35291 0.56401 0.65458 0.00000
C478 C 0.34058 0.58552 0.66150 0.00000
O479 O 0.32257 0.58646 0.68084 0.00000
C480 C 0.34710 0.45408 0.65828 0.00000
O481 O 0.53539 0.32417 0.65801 0.00000
O482 O 0.55995 0.36503 0.65429 0.00000
Mn483 Mn 0.49302 0.33896 0.66417 0.00000
O484 O 0.45042 0.35058 0.67018 0.00000
C485 C 0.42662 0.33820 0.66781 0.00000
O486 O 0.42207 0.31172 0.66733 0.00000
C487 C 0.55806 0.33862 0.65716 0.00000
O488 O 0.63907 0.44076 0.65767 0.00000
O489 O 0.68197 0.42538 0.66339 0.00000
Mn490 Mn 0.64794 0.48614 0.66399 0.00000
O491 O 0.65374 0.53104 0.66953 0.00000
C492 C 0.63981 0.55168 0.66341 0.00000
O493 O 0.61374 0.55029 0.65756 0.00000
C494 C 0.65554 0.42154 0.66099 0.00000
O495 O 0.47204 0.35397 0.34553 0.00000
O496 O 0.45700 0.31669 0.31995 0.00000
Mn497 Mn 0.51768 0.34981 0.34390 0.00000
O498 O 0.56280 0.34835 0.34384 0.00000
C499 C 0.58304 0.36559 0.34902 0.00000
O500 O 0.58133 0.38830 0.36286 0.00000
C501 C 0.45305 0.33698 0.33654 0.00000
O502 O 0.66080 0.55601 0.33857 0.00000
O503 O 0.62404 0.56193 0.31051 0.00000
Mn504 Mn 0.66119 0.50993 0.33829 0.00000
O505 O 0.66411 0.46499 0.33968 0.00000
C506 C 0.68279 0.44881 0.34649 0.00000
O507 O 0.70424 0.45588 0.36147 0.00000
C508 C 0.64271 0.57083 0.32803 0.00000
O509 O 0.52663 0.65343 0.32308 0.00000
O510 O 0.54578 0.66423 0.36486 0.00000
Mn511 Mn 0.48195 0.64946 0.33413 0.00000
O512 O 0.43748 0.64510 0.34204 0.00000
C513 C 0.41563 0.64514 0.32722 0.00000
O514 O 0.41475 0.64111 0.30087 0.00000
C515 C 0.54730 0.65691 0.33933 0.00000
O516 O 0.33434 0.53549 0.33349 0.00000
O517 O 0.33466 0.55308 0.37693 0.00000
Mn518 Mn 0.34729 0.49280 0.34175 0.00000
O519 O 0.35959 0.45031 0.34691 0.00000
C520 C 0.35780 0.42833 0.33221 0.00000
O521 O 0.35353 0.42760 0.30590 0.00000
C522 C 0.33342 0.55552 0.35053 0.00000
O523 O 0.67037 0.34351 0.45406 0.00000
O524 O 0.70564 0.37558 0.44887 0.00000
Mn525 Mn 0.67069 0.33928 0.49992 0.00000
O526 O 0.66856 0.33324 0.54462 0.00000
C527 C 0.65048 0.32306 0.56108 0.00000
O528 O 0.62967 0.30676 0.55379 0.00000
C529 C 0.68770 0.35721 0.43935 0.00000
O530 O 0.17136 0.96294 0.83425 0.00000
O531 O 0.15676 0.94745 0.87579 0.00000
Mn532 Mn 0.15915 0.00667 0.83665 0.00000
O533 O 0.14849 0.05003 0.83632 0.00000
C534 C 0.15597 0.07123 0.82238 0.00000
O535 O 0.16807 0.07048 0.79883 0.00000
C536 C 0.16583 0.94367 0.85125 0.00000
O537 O 0.02515 0.15450 0.82948 0.00000
O538 O 0.04499 0.17793 0.86584 0.00000
Mn539 Mn 0.98073 0.15389 0.84151 0.00000
O540 O 0.93648 0.15194 0.85065 0.00000
C541 C 0.91431 0.14718 0.83663 0.00000
O542 O 0.91296 0.13512 0.81277 0.00000
C543 C 0.04610 0.16302 0.84378 0.00000
loop_
_geom_bond_atom_site_label_1
_geom_bond_atom_site_label_2
_geom_bond_distance
_geom_bond_site_symmetry_2
_ccdc_geom_bond_type
O0 Zn3 2.062 . S
O0 C15 1.265 . A
O1 Zn2 1.961 . S
O1 C15 1.292 . A
Zn2 O4 2.038 . S
Zn2 O10 2.174 . S
Zn2 O14 2.069 . S
Zn3 O4 2.099 . S
Zn3 O13 2.024 . S
Zn3 O18 2.138 . S
O4 Zn5 1.953 . S
O4 H17 0.992 . S
Zn5 O7 1.967 . S
Zn5 O9 1.951 . S
Zn5 O19 1.961 . S
C6 O9 1.283 . A
C6 O10 1.233 . A
O7 C16 1.248 . S
C8 O18 1.243 . A
C8 O19 1.269 . A
O11 C16 1.210 . D
C12 O13 1.217 . A
C12 O14 1.238 . A
O20 Zn23 2.062 . S
O20 C35 1.265 . A
O21 Zn22 1.961 . S
O21 C35 1.292 . A
Zn22 O24 2.038 . S
Zn22 O30 2.174 . S
Zn22 O34 2.069 . S
Zn23 O24 2.099 . S
Zn23 O33 2.024 . S
Zn23 O38 2.138 . S
O24 Zn25 1.953 . S
O24 H37 0.992 . S
Zn25 O27 1.967 . S
Zn25 O29 1.951 . S
Zn25 O39 1.961 . S
C26 O29 1.283 . A
C26 O30 1.233 . A
O27 C36 1.248 . S
C28 O38 1.243 . A
C28 O39 1.269 . A
O31 C36 1.210 . D
C32 O33 1.217 . A
C32 O34 1.238 . A
O40 Zn43 2.062 . S
O40 C55 1.265 . A
O41 Zn42 1.961 . S
O41 C55 1.292 . A
Zn42 O44 2.038 . S
Zn42 O50 2.174 . S
Zn42 O54 2.069 . S
Zn43 O44 2.099 . S
Zn43 O53 2.024 . S
Zn43 O58 2.138 . S
O44 Zn45 1.953 . S
O44 H57 0.992 . S
Zn45 O47 1.967 . S
Zn45 O49 1.951 . S
Zn45 O59 1.961 . S
C46 O49 1.283 . A
C46 O50 1.233 . A
O47 C56 1.248 . S
C48 O58 1.243 . A
C48 O59 1.269 . A
O51 C56 1.210 . D
C52 O53 1.217 . A
C52 O54 1.238 . A
O60 Zn63 2.062 . S
O60 C75 1.265 . A
O61 Zn62 1.961 . S
O61 C75 1.292 . A
Zn62 O64 2.038 . S
Zn62 O70 2.174 . S
Zn62 O74 2.069 . S
Zn63 O64 2.099 . S
Zn63 O73 2.024 . S
Zn63 O78 2.138 . S
O64 Zn65 1.953 . S
O64 H77 0.992 . S
Zn65 O67 1.967 . S
Zn65 O69 1.951 . S
Zn65 O79 1.961 . S
C66 O69 1.283 . A
C66 O70 1.233 . A
O67 C76 1.248 . S
C68 O78 1.243 . A
C68 O79 1.269 . A
O71 C76 1.210 . D
C72 O73 1.217 . A
C72 O74 1.238 . A
O80 Zn83 2.062 . S
O80 C95 1.265 . A
O81 Zn82 1.961 . S
O81 C95 1.292 . A
Zn82 O84 2.038 . S
Zn82 O90 2.174 . S
Zn82 O94 2.069 . S
Zn83 O84 2.099 . S
Zn83 O93 2.024 . S
Zn83 O98 2.138 . S
O84 Zn85 1.953 . S
O84 H97 0.992 . S
Zn85 O87 1.967 . S
Zn85 O89 1.951 . S
Zn85 O99 1.961 . S
C86 O89 1.283 . A
C86 O90 1.233 . A
O87 C96 1.248 . S
C88 O98 1.243 . A
C88 O99 1.269 . A
O91 C96 1.210 . D
C92 O93 1.217 . A
C92 O94 1.238 . A
O100 Zn103 2.062 . S
O100 C115 1.265 . A
O101 Zn102 1.961 . S
O101 C115 1.292 . A
Zn102 O104 2.038 . S
Zn102 O110 2.174 . S
Zn102 O114 2.069 . S
Zn103 O104 2.099 . S
Zn103 O113 2.024 . S
Zn103 O118 2.138 . S
O104 Zn105 1.953 . S
O104 H117 0.992 . S
Zn105 O107 1.967 . S
Zn105 O109 1.951 . S
Zn105 O119 1.961 . S
C106 O109 1.283 . A
C106 O110 1.233 . A
O107 C116 1.248 . S
C108 O118 1.243 . A
C108 O119 1.269 . A
O111 C116 1.210 . D
C112 O113 1.217 . A
C112 O114 1.238 . A
O120 Zn123 2.062 . S
O120 C135 1.265 . A
O121 Zn122 1.961 . S
O121 C135 1.292 . A
Zn122 O124 2.038 . S
Zn122 O130 2.174 . S
Zn122 O134 2.069 . S
Zn123 O124 2.099 . S
Zn123 O133 2.024 . S
Zn123 O138 2.138 . S
O124 Zn125 1.953 . S
O124 H137 0.992 . S
Zn125 O127 1.967 . S
Zn125 O129 1.951 . S
Zn125 O139 1.961 . S
C126 O129 1.283 . A
C126 O130 1.233 . A
O127 C136 1.248 . S
C128 O138 1.243 . A
C128 O139 1.269 . A
O131 C136 1.210 . D
C132 O133 1.217 . A
C132 O134 1.238 . A
O140 Zn143 2.062 . S
O140 C155 1.265 . A
O141 Zn142 1.961 . S
O141 C155 1.292 . A
Zn142 O144 2.038 . S
Zn142 O150 2.174 . S
Zn142 O154 2.069 . S
Zn143 O144 2.099 . S
Zn143 O153 2.024 . S
Zn143 O158 2.138 . S
O144 Zn145 1.953 . S
O144 H157 0.992 . S
Zn145 O147 1.967 . S
Zn145 O149 1.951 . S
Zn145 O159 1.961 . S
C146 O149 1.283 . A
C146 O150 1.233 . A
O147 C156 1.248 . S
C148 O158 1.243 . A
C148 O159 1.269 . A
O151 C156 1.210 . D
C152 O153 1.217 . A
C152 O154 1.238 . A
O160 Zn163 2.062 . S
O160 C175 1.265 . A
O161 Zn162 1.961 . S
O161 C175 1.292 . A
Zn162 O164 2.038 . S
Zn162 O170 2.174 . S
Zn162 O174 2.069 . S
Zn163 O164 2.099 . S
Zn163 O173 2.024 . S
Zn163 O178 2.138 . S
O164 Zn165 1.953 . S
O164 H177 0.992 . S
Zn165 O167 1.967 . S
Zn165 O169 1.951 . S
Zn165 O179 1.961 . S
C166 O169 1.283 . A
C166 O170 1.233 . A
O167 C176 1.248 . S
C168 O178 1.243 . A
C168 O179 1.269 . A
O171 C176 1.210 . D
C172 O173 1.217 . A
C172 O174 1.238 . A
O180 Zn183 2.062 . S
O180 C195 1.265 . A
O181 Zn182 1.961 . S
O181 C195 1.292 . A
Zn182 O184 2.038 . S
Zn182 O190 2.174 . S
Zn182 O194 2.069 . S
Zn183 O184 2.099 . S
Zn183 O193 2.024 . S
Zn183 O198 2.138 . S
O184 Zn185 1.953 . S
O184 H197 0.992 . S
Zn185 O187 1.967 . S
Zn185 O189 1.951 . S
Zn185 O199 1.961 . S
C186 O189 1.283 . A
C186 O190 1.233 . A
O187 C196 1.248 . S
C188 O198 1.243 . A
C188 O199 1.269 . A
O191 C196 1.210 . D
C192 O193 1.217 . A
C192 O194 1.238 . A
O200 Zn203 2.062 . S
O200 C215 1.265 . A
O201 Zn202 1.961 . S
O201 C215 1.292 . A
Zn202 O204 2.038 . S
Zn202 O210 2.174 . S
Zn202 O214 2.069 . S
Zn203 O204 2.099 . S
Zn203 O213 2.024 . S
Zn203 O218 2.138 . S
O204 Zn205 1.953 . S
O204 H217 0.992 . S
Zn205 O207 1.967 . S
Zn205 O209 1.951 . S
Zn205 O219 1.961 . S
C206 O209 1.283 . A
C206 O210 1.233 . A
O207 C216 1.248 . S
C208 O218 1.243 . A
C208 O219 1.269 . A
O211 C216 1.210 . D
C212 O213 1.217 . A
C212 O214 1.238 . A
O220 Zn223 2.062 . S
O220 C235 1.265 . A
O221 Zn222 1.961 . S
O221 C235 1.292 . A
Zn222 O224 2.038 . S
Zn222 O230 2.174 . S
Zn222 O234 2.069 . S
Zn223 O224 2.099 . S
Zn223 O233 2.024 . S
Zn223 O238 2.138 . S
O224 Zn225 1.953 . S
O224 H237 0.992 . S
Zn225 O227 1.967 . S
Zn225 O229 1.951 . S
Zn225 O239 1.961 . S
C226 O229 1.283 . A
C226 O230 1.233 . A
O227 C236 1.248 . S
C228 O238 1.243 . A
C228 O239 1.269 . A
O231 C236 1.210 . D
C232 O233 1.217 . A
C232 O234 1.238 . A
O240 Zn243 2.062 . S
O240 C255 1.265 . A
O241 Zn242 1.961 . S
O241 C255 1.292 . A
Zn242 O244 2.038 . S
Zn242 O250 2.174 . S
Zn242 O254 2.069 . S
Zn243 O244 2.099 . S
Zn243 O253 2.024 . S
Zn243 O258 2.138 . S
O244 Zn245 1.953 . S
O244 H257 0.992 . S
Zn245 O247 1.967 . S
Zn245 O249 1.951 . S
Zn245 O259 1.961 . S
C246 O249 1.283 . A
C246 O250 1.233 . A
O247 C256 1.248 . S
C248 O258 1.243 . A
C248 O259 1.269 . A
O251 C256 1.210 . D
C252 O253 1.217 . A
C252 O254 1.238 . A
O260 Zn263 2.062 . S
O260 C275 1.265 . A
O261 Zn262 1.961 . S
O261 C275 1.292 . A
Zn262 O264 2.038 . S
Zn262 O270 2.174 . S
Zn262 O274 2.069 . S
Zn263 O264 2.099 . S
Zn263 O273 2.024 . S
Zn263 O278 2.138 . S
O264 Zn265 1.953 . S
O264 H277 0.992 . S
Zn265 O267 1.967 . S
Zn265 O269 1.951 . S
Zn265 O279 1.961 . S
C266 O269 1.283 . A
C266 O270 1.233 . A
O267 C276 1.248 . S
C268 O278 1.243 . A
C268 O279 1.269 . A
O271 C276 1.210 . D
C272 O273 1.217 . A
C272 O274 1.238 . A
O280 Zn283 2.062 . S
O280 C295 1.265 . A
O281 Zn282 1.961 . S
O281 C295 1.292 . A
Zn282 O284 2.038 . S
Zn282 O290 2.174 . S
Zn282 O294 2.069 . S
Zn283 O284 2.099 . S
Zn283 O293 2.024 . S
Zn283 O298 2.138 . S
O284 Zn285 1.953 . S
O284 H297 0.992 . S
Zn285 O287 1.967 . S
Zn285 O289 1.951 . S
Zn285 O299 1.961 . S
C286 O289 1.283 . A
C286 O290 1.233 . A
O287 C296 1.248 . S
C288 O298 1.243 . A
C288 O299 1.269 . A
O291 C296 1.210 . D
C292 O293 1.217 . A
C292 O294 1.238 . A
O300 Zn303 2.062 . S
O300 C315 1.265 . A
O301 Zn302 1.961 . S
O301 C315 1.292 . A
Zn302 O304 2.038 . S
Zn302 O310 2.174 . S
Zn302 O314 2.069 . S
Zn303 O304 2.099 . S
Zn303 O313 2.024 . S
Zn303 O318 2.138 . S
O304 Zn305 1.953 . S
O304 H317 0.992 . S
Zn305 O307 1.967 . S
Zn305 O309 1.951 . S
Zn305 O319 1.961 . S
C306 O309 1.283 . A
C306 O310 1.233 . A
O307 C316 1.248 . S
C308 O318 1.243 . A
C308 O319 1.269 . A
O311 C316 1.210 . D
C312 O313 1.217 . A
C312 O314 1.238 . A
O320 Mn322 2.192 . S
O320 C326 1.247 . S
O321 C326 1.263 . D
Mn322 O323 2.150 . S
O323 C324 1.250 . S
C324 O325 1.265 . D
O327 Mn329 2.192 . S
O327 C333 1.247 . S
O328 C333 1.263 . D
Mn329 O330 2.150 . S
O330 C331 1.250 . S
C331 O332 1.265 . D
O334 Mn336 2.192 . S
O334 C340 1.247 . S
O335 C340 1.263 . D
Mn336 O337 2.150 . S
O337 C338 1.250 . S
C338 O339 1.265 . D
O341 Mn343 2.192 . S
O341 C347 1.247 . S
O342 C347 1.263 . D
Mn343 O344 2.150 . S
O344 C345 1.250 . S
C345 O346 1.265 . D
O348 Mn350 2.192 . S
O348 C354 1.247 . S
O349 C354 1.263 . D
Mn350 O351 2.150 . S
O351 C352 1.250 . S
C352 O353 1.265 . D
O355 Mn357 2.192 . S
O355 C361 1.247 . S
O356 C361 1.263 . D
Mn357 O358 2.150 . S
O358 C359 1.250 . S
C359 O360 1.265 . D
O362 Mn364 2.192 . S
O362 C368 1.247 . S
O363 C368 1.263 . D
Mn364 O365 2.150 . S
O365 C366 1.250 . S
C366 O367 1.265 . D
O369 Mn371 2.192 . S
O369 C375 1.247 . S
O370 C375 1.263 . D
Mn371 O372 2.150 . S
O372 C373 1.250 . S
C373 O374 1.265 . D
O376 Mn378 2.197 . S
O376 C382 1.247 . S
O377 C382 1.263 . D
Mn378 O379 2.145 1_565 S
O379 C380 1.250 . S
C380 O381 1.265 . D
O383 Mn385 2.192 1_655 S
O383 C389 1.247 . S
O384 C389 1.263 . D
Mn385 O386 2.150 . S
O386 C387 1.250 . S
C387 O388 1.265 . D
O390 Mn392 2.192 . S
O390 C396 1.247 . S
O391 C396 1.263 . D
Mn392 O393 2.150 1_545 S
O393 C394 1.250 . S
C394 O395 1.265 . D
O397 Mn399 2.192 1_455 S
O397 C403 1.247 . S
O398 C403 1.263 . D
Mn399 O400 2.150 . S
O400 C401 1.250 . S
C401 O402 1.265 . D
O404 Mn406 2.192 . S
O404 C410 1.247 . S
O405 C410 1.263 . D
Mn406 O407 2.150 1_565 S
O407 C408 1.250 . S
C408 O409 1.265 . D
O411 Mn413 2.192 . S
O411 C417 1.247 . S
O412 C417 1.263 . D
Mn413 O414 2.150 1_455 S
O414 C415 1.250 . S
C415 O416 1.265 . D
O418 Mn420 2.173 1_554 S
O418 C424 1.247 . S
O419 C424 1.263 . D
Mn420 O421 2.170 . S
O421 C422 1.250 . S
C422 O423 1.265 . D
O425 Mn427 2.192 1_556 S
O425 C431 1.247 . S
O426 C431 1.263 . D
Mn427 O428 2.150 . S
O428 C429 1.250 . S
C429 O430 1.265 . D
O432 Mn434 2.228 . S
O432 C438 1.247 . S
O433 C438 1.263 . D
Mn434 O435 2.114 1_554 S
O435 C436 1.250 . S
C436 O437 1.265 . D
O439 Mn441 2.192 1_554 S
O439 C445 1.247 . S
O440 C445 1.263 . D
Mn441 O442 2.150 . S
O442 C443 1.250 . S
C443 O444 1.265 . D
O446 Mn448 2.192 . S
O446 C452 1.247 . S
O447 C452 1.263 . D
Mn448 O449 2.150 . S
O449 C450 1.250 . S
C450 O451 1.265 . D
O453 Mn455 2.192 . S
O453 C459 1.247 . S
O454 C459 1.263 . D
Mn455 O456 2.150 . S
O456 C457 1.250 . S
C457 O458 1.265 . D
O460 Mn462 2.192 . S
O460 C466 1.247 . S
O461 C466 1.263 . D
Mn462 O463 2.150 . S
O463 C464 1.250 . S
C464 O465 1.265 . D
O467 Mn469 2.192 . S
O467 C473 1.247 . S
O468 C473 1.263 . D
Mn469 O470 2.150 . S
O470 C471 1.250 . S
C471 O472 1.265 . D
O474 Mn476 2.192 . S
O474 C480 1.247 . S
O475 C480 1.263 . D
Mn476 O477 2.150 . S
O477 C478 1.250 . S
C478 O479 1.265 . D
O481 Mn483 2.192 . S
O481 C487 1.247 . S
O482 C487 1.263 . D
Mn483 O484 2.150 . S
O484 C485 1.250 . S
C485 O486 1.265 . D
O488 Mn490 2.192 . S
O488 C494 1.247 . S
O489 C494 1.263 . D
Mn490 O491 2.150 . S
O491 C492 1.250 . S
C492 O493 1.265 . D
O495 Mn497 2.192 . S
O495 C501 1.247 . S
O496 C501 1.263 . D
Mn497 O498 2.150 . S
O498 C499 1.250 . S
C499 O500 1.265 . D
O502 Mn504 2.192 . S
O502 C508 1.247 . S
O503 C508 1.263 . D
Mn504 O505 2.150 . S
O505 C506 1.250 . S
C506 O507 1.265 . D
O509 Mn511 2.192 . S
O509 C515 1.247 . S
O510 C515 1.263 . D
Mn511 O512 2.150 . S
O512 C513 1.250 . S
C513 O514 1.265 . D
O516 Mn518 2.192 . S
O516 C522 1.247 . S
O517 C522 1.263 . D
Mn518 O519 2.150 . S
O519 C520 1.250 . S
C520 O521 1.265 . D
O523 Mn525 2.192 . S
O523 C529 1.247 . S
O524 C529 1.263 . D
Mn525 O526 2.150 . S
O526 C527 1.250 . S
C527 O528 1.265 . D
O530 Mn532 2.192 1_565 S
O530 C536 1.247 . S
O531 C536 1.263 . D
Mn532 O533 2.150 . S
O533 C534 1.250 . S
C534 O535 1.265 . D
O537 Mn539 2.192 1_455 S
O537 C543 1.247 . S
O538 C543 1.263 . D
Mn539 O540 2.150 . S
O540 C541 1.250 . S
C541 O542 1.265 . D
C324 C292 1.095 . S
C326 C12 1.149 . S
C331 C312 1.206 . S
C333 C32 1.185 . S
C338 C52 1.228 . S
C340 C172 1.298 . S
C345 C72 1.088 . S
C347 C192 1.158 . S
C352 C212 1.180 . S
C354 C92 1.248 . S
C359 C112 1.212 . S
C361 C232 1.250 . S
C366 C252 1.092 . S
C368 C132 1.147 . S
C373 C152 1.172 . S
C375 C272 1.189 . S
C380 C8 1.074 . S
C382 C108 1.204 . S
C387 C96 1.419 . S
C389 C28 1.583 . S
C394 C46 1.053 . S
C396 C36 1.213 . S
C401 C48 1.457 . S
C403 C68 1.254 . S
C408 C88 1.627 . S
C410 C76 1.444 . S
C415 C106 1.191 . S
C417 C136 1.233 . S
C422 C126 1.141 . S
C424 C66 1.017 . S
C429 C26 0.936 . S
C431 C6 0.963 . S
C436 C116 1.207 . S
C438 C56 1.227 . S
C443 C156 1.020 . S
C445 C86 1.190 . S
C450 C236 1.378 . S
C452 C176 1.261 . S
C457 C186 0.890 . S
C459 C246 1.071 . S
C464 C206 1.280 . S
C466 C276 1.422 . S
C471 C228 1.342 . S
C473 C248 1.525 . S
C478 C256 1.075 . S
C480 C266 1.176 . S
C485 C268 1.329 . S
C487 C288 1.233 . S
C492 C226 1.040 . S
C494 C296 0.954 . S
C499 C316 1.409 . S
C501 C208 1.595 . S
C506 C308 1.518 . S
C508 C168 1.463 . S
C513 C196 1.121 . S
C515 C166 1.019 . S
C520 C216 1.208 . S
C522 C188 1.420 . S
C527 C286 1.038 . S
C529 C306 1.099 . S
C534 C148 1.578 . S
C536 C128 1.414 . S
C541 C16 1.339 . S
C543 C146 1.250 . S
