# Generated by pormake.
# Topology pcb, (4)-cn, num edge types: 1
# Building blocks:
#     Node 0, Type 0, BuildingBlock: N164, # of connection points: 4
#     Node 1, Type 0, BuildingBlock: N164, # of connection points: 4
#     Node 2, Type 0, BuildingBlock: N164, # of connection points: 4
#     Node 3, Type 0, BuildingBlock: N164, # of connection points: 4
#     Node 4, Type 0, BuildingBlock: N164, # of connection points: 4
#     Node 5, Type 0, BuildingBlock: N164, # of connection points: 4
#     Node 6, Type 0, BuildingBlock: N164, # of connection points: 4
#     Node 7, Type 0, BuildingBlock: N164, # of connection points: 4
#     Node 8, Type 0, BuildingBlock: N164, # of connection points: 4
#     Node 9, Type 0, BuildingBlock: N164, # of connection points: 4
#     Node 10, Type 0, BuildingBlock: N164, # of connection points: 4
#     Node 11, Type 0, BuildingBlock: N164, # of connection points: 4
#     Node 12, Type 0, BuildingBlock: N164, # of connection points: 4
#     Node 13, Type 0, BuildingBlock: N164, # of connection points: 4
#     Node 14, Type 0, BuildingBlock: N164, # of connection points: 4
#     Node 15, Type 0, BuildingBlock: N164, # of connection points: 4
#     Edge 16, Type (0, 0), BuildingBlock: E80, # of connection points: 2
#     Edge 17, Type (0, 0), BuildingBlock: E80, # of connection points: 2
#     Edge 18, Type (0, 0), BuildingBlock: E80, # of connection points: 2
#     Edge 19, Type (0, 0), BuildingBlock: E80, # of connection points: 2
#     Edge 20, Type (0, 0), BuildingBlock: E80, # of connection points: 2
#     Edge 21, Type (0, 0), BuildingBlock: E80, # of connection points: 2
#     Edge 22, Type (0, 0), BuildingBlock: E80, # of connection points: 2
#     Edge 23, Type (0, 0), BuildingBlock: E80, # of connection points: 2
#     Edge 24, Type (0, 0), BuildingBlock: E80, # of connection points: 2
#     Edge 25, Type (0, 0), BuildingBlock: E80, # of connection points: 2
#     Edge 26, Type (0, 0), BuildingBlock: E80, # of connection points: 2
#     Edge 27, Type (0, 0), BuildingBlock: E80, # of connection points: 2
#     Edge 28, Type (0, 0), BuildingBlock: E80, # of connection points: 2
#     Edge 29, Type (0, 0), BuildingBlock: E80, # of connection points: 2
#     Edge 30, Type (0, 0), BuildingBlock: E80, # of connection points: 2
#     Edge 31, Type (0, 0), BuildingBlock: E80, # of connection points: 2
#     Edge 32, Type (0, 0), BuildingBlock: E80, # of connection points: 2
#     Edge 33, Type (0, 0), BuildingBlock: E80, # of connection points: 2
#     Edge 34, Type (0, 0), BuildingBlock: E80, # of connection points: 2
#     Edge 35, Type (0, 0), BuildingBlock: E80, # of connection points: 2
#     Edge 36, Type (0, 0), BuildingBlock: E80, # of connection points: 2
#     Edge 37, Type (0, 0), BuildingBlock: E80, # of connection points: 2
#     Edge 38, Type (0, 0), BuildingBlock: E80, # of connection points: 2
#     Edge 39, Type (0, 0), BuildingBlock: E80, # of connection points: 2
#     Edge 40, Type (0, 0), BuildingBlock: E80, # of connection points: 2
#     Edge 41, Type (0, 0), BuildingBlock: E80, # of connection points: 2
#     Edge 42, Type (0, 0), BuildingBlock: E80, # of connection points: 2
#     Edge 43, Type (0, 0), BuildingBlock: E80, # of connection points: 2
#     Edge 44, Type (0, 0), BuildingBlock: E80, # of connection points: 2
#     Edge 45, Type (0, 0), BuildingBlock: E80, # of connection points: 2
#     Edge 46, Type (0, 0), BuildingBlock: E80, # of connection points: 2
#     Edge 47, Type (0, 0), BuildingBlock: E80, # of connection points: 2
# Relax obj value: 0.410
# Max RMSD: 0.229
# Mean RMSD: 0.229
data_pcb+N164+E80
_symmetry_space_group_name_H-M    P1
_symmetry_Int_Tables_number       1
_symmetry_cell_setting            triclinic
loop_
_symmetry_equiv_pos_as_xyz
'x, y, z'
_cell_length_a     36.056
_cell_length_b     50.829
_cell_length_c     50.829
_cell_angle_alpha  90.000
_cell_angle_beta   90.000
_cell_angle_gamma  90.000
loop_
_atom_site_label
_atom_site_type_symbol
_atom_site_fract_x
_atom_site_fract_y
_atom_site_fract_z
_atom_type_partial_charge
O0 O 0.78702 0.14502 0.79231 0.00000
O1 O 0.74639 0.16506 0.81674 0.00000
O2 O 0.76090 0.15484 0.87261 0.00000
O3 O 0.79955 0.12228 0.87605 0.00000
In4 In 0.78564 0.13590 0.83545 0.00000
C5 C 0.85338 0.15585 0.83757 0.00000
O6 O 0.78442 0.09300 0.82525 0.00000
O7 O 0.73278 0.11121 0.83786 0.00000
C8 C 0.76239 0.16204 0.79490 0.00000
O9 O 0.85163 0.13161 0.83172 0.00000
O10 O 0.82401 0.16886 0.83995 0.00000
C11 C 0.77934 0.13938 0.88641 0.00000
C12 C 0.75100 0.09111 0.83159 0.00000
O13 O 0.78704 0.20769 0.14501 0.00000
O14 O 0.74640 0.18326 0.16505 0.00000
O15 O 0.76092 0.12739 0.15483 0.00000
O16 O 0.79957 0.12395 0.12227 0.00000
In17 In 0.78566 0.16455 0.13590 0.00000
C18 C 0.85339 0.16242 0.15584 0.00000
O19 O 0.78444 0.17475 0.09299 0.00000
O20 O 0.73280 0.16214 0.11120 0.00000
C21 C 0.76241 0.20510 0.16203 0.00000
O22 O 0.85165 0.16828 0.13161 0.00000
O23 O 0.82403 0.16005 0.16885 0.00000
C24 C 0.77935 0.11359 0.13937 0.00000
C25 C 0.75102 0.16841 0.09110 0.00000
O26 O 0.78703 0.85499 0.20769 0.00000
O27 O 0.74639 0.83496 0.18326 0.00000
O28 O 0.76091 0.84517 0.12739 0.00000
O29 O 0.79956 0.87774 0.12395 0.00000
In30 In 0.78565 0.86411 0.16455 0.00000
C31 C 0.85338 0.84417 0.16243 0.00000
O32 O 0.78443 0.90701 0.17475 0.00000
O33 O 0.73279 0.88880 0.16214 0.00000
C34 C 0.76240 0.83797 0.20510 0.00000
O35 O 0.85164 0.86840 0.16828 0.00000
O36 O 0.82402 0.83115 0.16005 0.00000
C37 C 0.77934 0.86063 0.11359 0.00000
C38 C 0.75102 0.90890 0.16841 0.00000
O39 O 0.21297 0.79231 0.14501 0.00000
O40 O 0.25361 0.81674 0.16505 0.00000
O41 O 0.23910 0.87261 0.15483 0.00000
O42 O 0.20044 0.87605 0.12227 0.00000
In43 In 0.21435 0.83545 0.13589 0.00000
C44 C 0.14662 0.83757 0.15584 0.00000
O45 O 0.21557 0.82525 0.09299 0.00000
O46 O 0.26722 0.83786 0.11120 0.00000
C47 C 0.23760 0.79490 0.16203 0.00000
O48 O 0.14836 0.83172 0.13160 0.00000
O49 O 0.17598 0.83995 0.16885 0.00000
C50 C 0.22066 0.88641 0.13937 0.00000
C51 C 0.24899 0.83159 0.09110 0.00000
O52 O 0.21299 0.14501 0.20769 0.00000
O53 O 0.25363 0.16504 0.18326 0.00000
O54 O 0.23911 0.15483 0.12738 0.00000
O55 O 0.20046 0.12226 0.12395 0.00000
In56 In 0.21437 0.13589 0.16455 0.00000
C57 C 0.14663 0.15583 0.16242 0.00000
O58 O 0.21559 0.09299 0.17475 0.00000
O59 O 0.26723 0.11120 0.16214 0.00000
C60 C 0.23762 0.16203 0.20510 0.00000
O61 O 0.14838 0.13160 0.16827 0.00000
O62 O 0.17600 0.16885 0.16005 0.00000
C63 C 0.22067 0.13937 0.11359 0.00000
C64 C 0.24900 0.09110 0.16841 0.00000
O65 O 0.78701 0.79231 0.85498 0.00000
O66 O 0.74637 0.81674 0.83495 0.00000
O67 O 0.76089 0.87261 0.84516 0.00000
O68 O 0.79954 0.87605 0.87773 0.00000
In69 In 0.78563 0.83545 0.86410 0.00000
C70 C 0.85337 0.83757 0.84416 0.00000
O71 O 0.78441 0.82525 0.90700 0.00000
O72 O 0.73277 0.83786 0.88879 0.00000
C73 C 0.76238 0.79490 0.83796 0.00000
O74 O 0.85162 0.83172 0.86839 0.00000
O75 O 0.82400 0.83995 0.83114 0.00000
C76 C 0.77933 0.88641 0.86062 0.00000
C77 C 0.75100 0.83159 0.90889 0.00000
O78 O 0.21296 0.85499 0.79231 0.00000
O79 O 0.25360 0.83495 0.81674 0.00000
O80 O 0.23908 0.84517 0.87262 0.00000
O81 O 0.20043 0.87773 0.87605 0.00000
In82 In 0.21434 0.86410 0.83545 0.00000
C83 C 0.14660 0.84416 0.83758 0.00000
O84 O 0.21556 0.90701 0.82525 0.00000
O85 O 0.26720 0.88880 0.83787 0.00000
C86 C 0.23759 0.83797 0.79490 0.00000
O87 O 0.14835 0.86840 0.83172 0.00000
O88 O 0.17597 0.83115 0.83995 0.00000
C89 C 0.22064 0.86063 0.88641 0.00000
C90 C 0.24897 0.90890 0.83159 0.00000
O91 O 0.21298 0.20768 0.85499 0.00000
O92 O 0.25361 0.18325 0.83495 0.00000
O93 O 0.23909 0.12738 0.84517 0.00000
O94 O 0.20044 0.12394 0.87773 0.00000
In95 In 0.21436 0.16454 0.86411 0.00000
C96 C 0.14662 0.16242 0.84416 0.00000
O97 O 0.21558 0.17474 0.90701 0.00000
O98 O 0.26722 0.16213 0.88880 0.00000
C99 C 0.23761 0.20509 0.83797 0.00000
O100 O 0.14836 0.16827 0.86840 0.00000
O101 O 0.17599 0.16005 0.83115 0.00000
C102 C 0.22066 0.11358 0.86063 0.00000
C103 C 0.24899 0.16840 0.90890 0.00000
O104 O 0.71296 0.70769 0.35498 0.00000
O105 O 0.75360 0.68326 0.33495 0.00000
O106 O 0.73908 0.62739 0.34516 0.00000
O107 O 0.70043 0.62395 0.37773 0.00000
In108 In 0.71435 0.66455 0.36410 0.00000
C109 C 0.64661 0.66243 0.34416 0.00000
O110 O 0.71556 0.67475 0.40700 0.00000
O111 O 0.76721 0.66214 0.38879 0.00000
C112 C 0.73759 0.70510 0.33796 0.00000
O113 O 0.64835 0.66828 0.36839 0.00000
O114 O 0.67597 0.66005 0.33114 0.00000
C115 C 0.72065 0.61359 0.36062 0.00000
C116 C 0.74898 0.66841 0.40889 0.00000
O117 O 0.28701 0.64501 0.29232 0.00000
O118 O 0.24637 0.66504 0.31675 0.00000
O119 O 0.26089 0.65483 0.37262 0.00000
O120 O 0.29954 0.62226 0.37606 0.00000
In121 In 0.28563 0.63589 0.33546 0.00000
C122 C 0.35336 0.65583 0.33758 0.00000
O123 O 0.28441 0.59299 0.32526 0.00000
O124 O 0.23277 0.61120 0.33787 0.00000
C125 C 0.26238 0.66203 0.29491 0.00000
O126 O 0.35162 0.63160 0.33173 0.00000
O127 O 0.32400 0.66885 0.33995 0.00000
C128 C 0.27933 0.63937 0.38642 0.00000
C129 C 0.25099 0.59110 0.33160 0.00000
O130 O 0.28702 0.29231 0.35499 0.00000
O131 O 0.24638 0.31674 0.33496 0.00000
O132 O 0.26090 0.37261 0.34517 0.00000
O133 O 0.29955 0.37605 0.37774 0.00000
In134 In 0.28564 0.33545 0.36411 0.00000
C135 C 0.35337 0.33758 0.34417 0.00000
O136 O 0.28442 0.32525 0.40701 0.00000
O137 O 0.23278 0.33786 0.38880 0.00000
C138 C 0.26239 0.29490 0.33797 0.00000
O139 O 0.35163 0.33172 0.36840 0.00000
O140 O 0.32401 0.33995 0.33115 0.00000
C141 C 0.27933 0.38641 0.36063 0.00000
C142 C 0.25101 0.33159 0.40890 0.00000
O143 O 0.71299 0.64502 0.70769 0.00000
O144 O 0.75362 0.66506 0.68326 0.00000
O145 O 0.73911 0.65484 0.62739 0.00000
O146 O 0.70046 0.62228 0.62395 0.00000
In147 In 0.71437 0.63591 0.66455 0.00000
C148 C 0.64663 0.65585 0.66243 0.00000
O149 O 0.71559 0.59300 0.67475 0.00000
O150 O 0.76723 0.61121 0.66214 0.00000
C151 C 0.73762 0.66204 0.70510 0.00000
O152 O 0.64837 0.63161 0.66828 0.00000
O153 O 0.67600 0.66886 0.66005 0.00000
C154 C 0.72067 0.63938 0.61359 0.00000
C155 C 0.74900 0.59111 0.66841 0.00000
O156 O 0.28703 0.70768 0.64501 0.00000
O157 O 0.24640 0.68325 0.66505 0.00000
O158 O 0.26091 0.62738 0.65483 0.00000
O159 O 0.29957 0.62394 0.62227 0.00000
In160 In 0.28565 0.66454 0.63590 0.00000
C161 C 0.35339 0.66242 0.65584 0.00000
O162 O 0.28443 0.67474 0.59299 0.00000
O163 O 0.23279 0.66213 0.61120 0.00000
C164 C 0.26240 0.70509 0.66203 0.00000
O165 O 0.35165 0.66827 0.63161 0.00000
O166 O 0.32402 0.66005 0.66885 0.00000
C167 C 0.27935 0.61358 0.63937 0.00000
C168 C 0.25102 0.66840 0.59110 0.00000
O169 O 0.28704 0.35499 0.70769 0.00000
O170 O 0.24641 0.33495 0.68326 0.00000
O171 O 0.26092 0.34517 0.62738 0.00000
O172 O 0.29957 0.37773 0.62395 0.00000
In173 In 0.28566 0.36411 0.66455 0.00000
C174 C 0.35340 0.34416 0.66242 0.00000
O175 O 0.28444 0.40701 0.67475 0.00000
O176 O 0.23280 0.38880 0.66214 0.00000
C177 C 0.26241 0.33797 0.70510 0.00000
O178 O 0.35166 0.36840 0.66828 0.00000
O179 O 0.32403 0.33115 0.66005 0.00000
C180 C 0.27936 0.36063 0.61359 0.00000
C181 C 0.25103 0.40890 0.66841 0.00000
O182 O 0.71299 0.29231 0.64501 0.00000
O183 O 0.75363 0.31674 0.66505 0.00000
O184 O 0.73911 0.37261 0.65483 0.00000
O185 O 0.70046 0.37605 0.62227 0.00000
In186 In 0.71437 0.33545 0.63590 0.00000
C187 C 0.64663 0.33757 0.65584 0.00000
O188 O 0.71559 0.32525 0.59299 0.00000
O189 O 0.76723 0.33786 0.61120 0.00000
C190 C 0.73762 0.29490 0.66203 0.00000
O191 O 0.64837 0.33172 0.63161 0.00000
O192 O 0.67600 0.33994 0.66885 0.00000
C193 C 0.72067 0.38641 0.63937 0.00000
C194 C 0.74900 0.33158 0.59110 0.00000
O195 O 0.71296 0.35499 0.29231 0.00000
O196 O 0.75360 0.33496 0.31674 0.00000
O197 O 0.73909 0.34517 0.37261 0.00000
O198 O 0.70043 0.37774 0.37605 0.00000
In199 In 0.71435 0.36411 0.33545 0.00000
C200 C 0.64661 0.34416 0.33757 0.00000
O201 O 0.71556 0.40701 0.32525 0.00000
O202 O 0.76721 0.38880 0.33786 0.00000
C203 C 0.73759 0.33797 0.29490 0.00000
O204 O 0.64835 0.36840 0.33172 0.00000
O205 O 0.67597 0.33115 0.33995 0.00000
C206 C 0.72065 0.36063 0.38641 0.00000
C207 C 0.74898 0.40890 0.33159 0.00000
C208 C 0.73826 0.27857 0.67777 0.00000
C209 C 0.75626 0.29444 0.69613 0.00000
C210 C 0.76090 0.28582 0.72163 0.00000
C211 C 0.74820 0.26119 0.72967 0.00000
C212 C 0.73083 0.24526 0.71087 0.00000
C213 C 0.72558 0.25401 0.68555 0.00000
C214 C 0.76392 0.17828 0.78762 0.00000
C215 C 0.74647 0.19818 0.80185 0.00000
H216 H 0.76510 0.31091 0.69117 0.00000
H217 H 0.77277 0.29664 0.73371 0.00000
H218 H 0.72277 0.22855 0.71556 0.00000
H219 H 0.71335 0.24330 0.67348 0.00000
C220 C 0.74207 0.22281 0.79095 0.00000
C221 C 0.75448 0.22843 0.76558 0.00000
C222 C 0.77129 0.20808 0.75132 0.00000
C223 C 0.77630 0.18364 0.76235 0.00000
H224 H 0.73783 0.19485 0.81878 0.00000
H225 H 0.73058 0.23594 0.80069 0.00000
H226 H 0.77914 0.21114 0.73419 0.00000
N227 N 0.75148 0.25379 0.75581 0.00000
H228 H 0.78817 0.17053 0.75271 0.00000
H229 H 0.75167 0.26629 0.76720 0.00000
C230 C 0.73847 0.32195 0.27885 0.00000
C231 C 0.76022 0.30485 0.29372 0.00000
C232 C 0.76676 0.27960 0.28499 0.00000
C233 C 0.75229 0.27060 0.26119 0.00000
C234 C 0.73111 0.28819 0.24622 0.00000
C235 C 0.72400 0.31322 0.25513 0.00000
C236 C 0.76517 0.21284 0.17790 0.00000
C237 C 0.75169 0.19788 0.19879 0.00000
H238 H 0.77029 0.31047 0.30962 0.00000
H239 H 0.78114 0.26834 0.29515 0.00000
H240 H 0.72175 0.28287 0.23004 0.00000
H241 H 0.70927 0.32444 0.24510 0.00000
C242 C 0.74884 0.20876 0.22354 0.00000
C243 C 0.75893 0.23481 0.22833 0.00000
C244 C 0.77172 0.24976 0.20703 0.00000
C245 C 0.77521 0.23879 0.18243 0.00000
H246 H 0.74465 0.18048 0.19604 0.00000
H247 H 0.74001 0.19854 0.23734 0.00000
H248 H 0.77792 0.26731 0.20956 0.00000
N249 N 0.75768 0.24465 0.25374 0.00000
H250 H 0.78443 0.24893 0.16864 0.00000
H251 H 0.76057 0.23344 0.26624 0.00000
C252 C 0.76152 0.82195 0.22114 0.00000
C253 C 0.73969 0.80487 0.20629 0.00000
C254 C 0.73310 0.77964 0.21504 0.00000
C255 C 0.74762 0.77061 0.23881 0.00000
C256 C 0.76888 0.78817 0.25376 0.00000
C257 C 0.77603 0.81319 0.24484 0.00000
C258 C 0.73480 0.71285 0.32210 0.00000
C259 C 0.74819 0.69788 0.30119 0.00000
H260 H 0.72959 0.81051 0.19042 0.00000
H261 H 0.71867 0.76840 0.20489 0.00000
H262 H 0.77826 0.78284 0.26992 0.00000
H263 H 0.79081 0.82439 0.25486 0.00000
C264 C 0.75100 0.70876 0.27644 0.00000
C265 C 0.74097 0.73483 0.27167 0.00000
C266 C 0.72827 0.74978 0.29299 0.00000
C267 C 0.72482 0.73881 0.31759 0.00000
H268 H 0.75519 0.68047 0.30394 0.00000
H269 H 0.75977 0.69853 0.26263 0.00000
H270 H 0.72211 0.76735 0.29048 0.00000
N271 N 0.74217 0.74467 0.24626 0.00000
H272 H 0.71566 0.74896 0.33140 0.00000
H273 H 0.73922 0.73347 0.23376 0.00000
C274 C 0.24657 0.78006 0.17872 0.00000
C275 C 0.27328 0.76513 0.16570 0.00000
C276 C 0.29068 0.74464 0.17847 0.00000
C277 C 0.28196 0.73817 0.20440 0.00000
C278 C 0.25453 0.75302 0.21705 0.00000
C279 C 0.23763 0.77376 0.20450 0.00000
C280 C 0.26579 0.66770 0.27692 0.00000
C281 C 0.30296 0.67492 0.27483 0.00000
H282 H 0.27943 0.76903 0.14835 0.00000
H283 H 0.30858 0.73493 0.16962 0.00000
H284 H 0.24765 0.74879 0.23415 0.00000
H285 H 0.21995 0.78369 0.21343 0.00000
C286 C 0.31416 0.69195 0.25529 0.00000
C287 C 0.28892 0.70253 0.23739 0.00000
C288 C 0.25155 0.69550 0.24007 0.00000
C289 C 0.24044 0.67814 0.25926 0.00000
H290 H 0.32027 0.66819 0.28662 0.00000
H291 H 0.33905 0.69650 0.25401 0.00000
H292 H 0.23405 0.70267 0.22875 0.00000
N293 N 0.30149 0.71841 0.21710 0.00000
H294 H 0.21556 0.67334 0.26039 0.00000
H295 H 0.32381 0.71571 0.21181 0.00000
C296 C 0.26152 0.27652 0.32428 0.00000
C297 C 0.27282 0.29271 0.30365 0.00000
C298 C 0.28074 0.28204 0.27937 0.00000
C299 C 0.27743 0.25511 0.27469 0.00000
C300 C 0.26533 0.23917 0.29547 0.00000
C301 C 0.25806 0.24972 0.31983 0.00000
C302 C 0.24600 0.17864 0.21135 0.00000
C303 C 0.28248 0.18685 0.20754 0.00000
H304 H 0.27507 0.31075 0.30629 0.00000
H305 H 0.28844 0.29302 0.26581 0.00000
H306 H 0.26217 0.22124 0.29274 0.00000
H307 H 0.25071 0.23870 0.33352 0.00000
C308 C 0.29594 0.20844 0.22087 0.00000
C309 C 0.27386 0.22240 0.23854 0.00000
C310 C 0.23749 0.21359 0.24257 0.00000
C311 C 0.22382 0.19235 0.22893 0.00000
H312 H 0.29777 0.17776 0.19592 0.00000
H313 H 0.32024 0.21380 0.21805 0.00000
H314 H 0.22242 0.22221 0.25463 0.00000
N315 N 0.28765 0.24488 0.25048 0.00000
H316 H 0.19933 0.18712 0.23153 0.00000
H317 H 0.30434 0.25341 0.24193 0.00000
C318 C 0.75990 0.77989 0.82102 0.00000
C319 C 0.72592 0.78839 0.81110 0.00000
C320 C 0.71230 0.77798 0.78801 0.00000
C321 C 0.73170 0.75869 0.77417 0.00000
C322 C 0.76544 0.74997 0.78467 0.00000
C323 C 0.77938 0.76069 0.80745 0.00000
C324 C 0.73093 0.67563 0.71538 0.00000
C325 C 0.72652 0.69812 0.70001 0.00000
H326 H 0.71242 0.80117 0.82006 0.00000
H327 H 0.68971 0.78391 0.78152 0.00000
H328 H 0.77857 0.73677 0.77613 0.00000
H329 H 0.80221 0.75495 0.81383 0.00000
C330 C 0.72295 0.72241 0.71178 0.00000
C331 C 0.72396 0.72522 0.73906 0.00000
C332 C 0.72916 0.70251 0.75422 0.00000
C333 C 0.73205 0.67821 0.74253 0.00000
H334 H 0.72592 0.69673 0.68176 0.00000
H335 H 0.71982 0.73724 0.70133 0.00000
H336 H 0.73068 0.70388 0.77241 0.00000
N337 N 0.71818 0.74974 0.75026 0.00000
H338 H 0.73480 0.66329 0.75299 0.00000
H339 H 0.70477 0.76057 0.74143 0.00000
C340 C 0.25479 0.71958 0.67916 0.00000
C341 C 0.22115 0.72982 0.67036 0.00000
C342 C 0.20217 0.74788 0.68545 0.00000
C343 C 0.21603 0.75653 0.70956 0.00000
C344 C 0.25023 0.74646 0.71788 0.00000
C345 C 0.26887 0.72809 0.70308 0.00000
C346 C 0.23167 0.83076 0.77828 0.00000
C347 C 0.19760 0.81826 0.78167 0.00000
H348 H 0.21144 0.72441 0.65428 0.00000
H349 H 0.17967 0.75445 0.67944 0.00000
H350 H 0.26046 0.75229 0.73361 0.00000
H351 H 0.29124 0.72128 0.70921 0.00000
C352 C 0.18626 0.79918 0.76416 0.00000
C353 C 0.20839 0.79174 0.74293 0.00000
C354 C 0.24288 0.80410 0.74009 0.00000
C355 C 0.25393 0.82347 0.75727 0.00000
H356 H 0.18244 0.82284 0.79576 0.00000
H357 H 0.16341 0.79110 0.76655 0.00000
H358 H 0.25849 0.79914 0.72643 0.00000
N359 N 0.19520 0.77357 0.72488 0.00000
H360 H 0.27667 0.83179 0.75474 0.00000
H361 H 0.17154 0.77278 0.72299 0.00000
C362 C 0.24445 0.21949 0.82070 0.00000
C363 C 0.28056 0.22702 0.82695 0.00000
C364 C 0.29979 0.24379 0.81059 0.00000
C365 C 0.28380 0.25380 0.78771 0.00000
C366 C 0.24723 0.24648 0.78197 0.00000
C367 C 0.22825 0.22938 0.79802 0.00000
C368 C 0.26926 0.32986 0.72088 0.00000
C369 C 0.30057 0.31493 0.71488 0.00000
H370 H 0.29173 0.22066 0.84218 0.00000
H371 H 0.32391 0.24854 0.81490 0.00000
H372 H 0.23565 0.25329 0.76713 0.00000
H373 H 0.20420 0.22438 0.79358 0.00000
C374 C 0.31152 0.29485 0.73135 0.00000
C375 C 0.29167 0.28876 0.75410 0.00000
C376 C 0.25986 0.30359 0.75958 0.00000
C377 C 0.24928 0.32394 0.74343 0.00000
H378 H 0.31415 0.31857 0.69974 0.00000
H379 H 0.33255 0.28514 0.72721 0.00000
H380 H 0.24571 0.29961 0.77433 0.00000
N381 N 0.30467 0.26943 0.77097 0.00000
H382 H 0.22842 0.33387 0.74770 0.00000
H383 H 0.32823 0.26684 0.77106 0.00000
C384 C 0.74023 0.05881 0.83383 0.00000
C385 C 0.73697 0.06004 0.86112 0.00000
C386 C 0.73481 0.03724 0.87570 0.00000
C387 C 0.73613 0.01255 0.86377 0.00000
C388 C 0.74016 0.01163 0.83638 0.00000
C389 C 0.74165 0.03437 0.82176 0.00000
C390 C 0.77553 0.91474 0.86653 0.00000
C391 C 0.74198 0.91816 0.87971 0.00000
H392 H 0.73618 0.07630 0.86952 0.00000
H393 H 0.73243 0.03832 0.89387 0.00000
H394 H 0.74187 0.99545 0.82798 0.00000
H395 H 0.74364 0.03331 0.80352 0.00000
C396 C 0.72766 0.94304 0.88325 0.00000
C397 C 0.74590 0.96526 0.87367 0.00000
C398 C 0.77921 0.96146 0.86000 0.00000
C399 C 0.79386 0.93669 0.85687 0.00000
H400 H 0.72925 0.90360 0.88618 0.00000
H401 H 0.70539 0.94507 0.89220 0.00000
H402 H 0.79155 0.97587 0.85295 0.00000
N403 N 0.73177 0.99007 0.87889 0.00000
H404 H 0.81640 0.93465 0.84814 0.00000
H405 H 0.71891 0.99170 0.89303 0.00000
C406 C 0.10096 0.16568 0.16092 0.00000
C407 C 0.09820 0.15260 0.18493 0.00000
C408 C 0.06432 0.15027 0.19726 0.00000
C409 C 0.03212 0.16061 0.18612 0.00000
C410 C 0.03522 0.17324 0.16173 0.00000
C411 C 0.06910 0.17599 0.14964 0.00000
C412 C 0.89069 0.15465 0.17016 0.00000
C413 C 0.89779 0.16639 0.19441 0.00000
H414 H 0.11931 0.14545 0.19268 0.00000
H415 H 0.06288 0.14163 0.21333 0.00000
H416 H 0.01409 0.17984 0.15362 0.00000
H417 H 0.07064 0.18489 0.13365 0.00000
C418 C 0.93363 0.16811 0.20369 0.00000
C419 C 0.96351 0.15849 0.18918 0.00000
C420 C 0.95600 0.14722 0.16460 0.00000
C421 C 0.92021 0.14506 0.15553 0.00000
H422 H 0.87829 0.17304 0.20439 0.00000
H423 H 0.93798 0.17585 0.21996 0.00000
H424 H 0.97546 0.14114 0.15429 0.00000
N425 N 0.99891 0.15921 0.19977 0.00000
H426 H 0.91576 0.13706 0.13935 0.00000
H427 H 0.00010 0.15874 0.21665 0.00000
C428 C 0.74026 0.94090 0.16431 0.00000
C429 C 0.75569 0.93805 0.13934 0.00000
C430 C 0.76174 0.95983 0.12377 0.00000
C431 C 0.75302 0.98509 0.13252 0.00000
C432 C 0.73822 0.98769 0.15786 0.00000
C433 C 0.73155 0.96594 0.17322 0.00000
C434 C 0.78186 0.08476 0.13449 0.00000
C435 C 0.76142 0.07851 0.11207 0.00000
H436 H 0.76187 0.92139 0.13314 0.00000
H437 H 0.77186 0.95766 0.10711 0.00000
H438 H 0.73285 0.00433 0.16438 0.00000
H439 H 0.72105 0.96806 0.18983 0.00000
C440 C 0.75314 0.05266 0.10641 0.00000
C441 C 0.76452 0.03224 0.12286 0.00000
C442 C 0.78439 0.03887 0.14559 0.00000
C443 C 0.79325 0.06461 0.15101 0.00000
H444 H 0.75341 0.09183 0.10087 0.00000
H445 H 0.73968 0.04874 0.09133 0.00000
H446 H 0.79166 0.02570 0.15716 0.00000
N447 N 0.75752 0.00638 0.11578 0.00000
H448 H 0.80708 0.06854 0.16598 0.00000
H449 H 0.75577 0.00320 0.09922 0.00000
C450 C 0.89898 0.84088 0.15730 0.00000
C451 C 0.90361 0.82139 0.13830 0.00000
C452 C 0.93824 0.81649 0.12791 0.00000
C453 C 0.96935 0.83055 0.13617 0.00000
C454 C 0.96438 0.84970 0.15566 0.00000
C455 C 0.92975 0.85494 0.16569 0.00000
C456 C 0.10997 0.83353 0.15611 0.00000
C457 C 0.10374 0.83740 0.12932 0.00000
H458 H 0.88327 0.81169 0.13258 0.00000
H459 H 0.94093 0.80355 0.11516 0.00000
H460 H 0.98476 0.85899 0.16189 0.00000
H461 H 0.92695 0.86810 0.17829 0.00000
C462 C 0.06840 0.83530 0.11921 0.00000
C463 C 0.03814 0.82955 0.13530 0.00000
C464 C 0.04473 0.82624 0.16225 0.00000
C465 C 0.08006 0.82786 0.17229 0.00000
H466 H 0.12350 0.84136 0.11824 0.00000
H467 H 0.06464 0.83778 0.10131 0.00000
H468 H 0.02496 0.82292 0.17349 0.00000
N469 N 0.00334 0.82612 0.12423 0.00000
H470 H 0.08393 0.82510 0.19020 0.00000
H471 H 0.00279 0.82066 0.10823 0.00000
C472 C 0.24972 0.05978 0.16677 0.00000
C473 C 0.26778 0.05165 0.18960 0.00000
C474 C 0.26562 0.02579 0.19761 0.00000
C475 C 0.24582 0.00716 0.18317 0.00000
C476 C 0.22845 0.01552 0.15998 0.00000
C477 C 0.23002 0.04141 0.15223 0.00000
C478 C 0.23073 0.91145 0.15030 0.00000
C479 C 0.21588 0.91404 0.17548 0.00000
H480 H 0.28127 0.06372 0.19949 0.00000
H481 H 0.27761 0.02065 0.21294 0.00000
H482 H 0.21570 0.00341 0.14971 0.00000
H483 H 0.21768 0.04665 0.13700 0.00000
C484 C 0.21948 0.93742 0.18897 0.00000
C485 C 0.23757 0.95899 0.17789 0.00000
C486 C 0.25169 0.95625 0.15237 0.00000
C487 C 0.24870 0.93280 0.13907 0.00000
H488 H 0.20357 0.89994 0.18322 0.00000
H489 H 0.20965 0.93886 0.20580 0.00000
H490 H 0.26320 0.97048 0.14431 0.00000
N491 N 0.24250 0.98169 0.19259 0.00000
H492 H 0.25890 0.93124 0.12230 0.00000
H493 H 0.24363 0.97975 0.20937 0.00000
C494 C 0.89911 0.84169 0.83431 0.00000
C495 C 0.90226 0.81494 0.82875 0.00000
C496 C 0.93638 0.80422 0.82290 0.00000
C497 C 0.96843 0.81956 0.82261 0.00000
C498 C 0.96493 0.84631 0.82876 0.00000
C499 C 0.93082 0.85713 0.83412 0.00000
C500 C 0.10944 0.82859 0.83906 0.00000
C501 C 0.10299 0.81769 0.81433 0.00000
H502 H 0.88126 0.80430 0.82893 0.00000
H503 H 0.93809 0.78639 0.81909 0.00000
H504 H 0.98595 0.85687 0.82922 0.00000
H505 H 0.92901 0.87506 0.83768 0.00000
C506 C 0.06738 0.81155 0.80660 0.00000
C507 C 0.03708 0.81622 0.82300 0.00000
C508 C 0.04393 0.82767 0.84759 0.00000
C509 C 0.07950 0.83336 0.85551 0.00000
H510 H 0.12277 0.81450 0.80301 0.00000
H511 H 0.06347 0.80416 0.79013 0.00000
H512 H 0.02418 0.83148 0.85869 0.00000
N513 N 0.00193 0.80843 0.81520 0.00000
H514 H 0.08351 0.84052 0.87214 0.00000
H515 H 0.00010 0.79527 0.80461 0.00000
C516 C 0.22017 0.85773 0.92010 0.00000
C517 C 0.23977 0.88099 0.92430 0.00000
C518 C 0.24786 0.88906 0.94953 0.00000
C519 C 0.23711 0.87428 0.97135 0.00000
C520 C 0.21808 0.85069 0.96679 0.00000
C521 C 0.20941 0.84286 0.94165 0.00000
C522 C 0.26295 0.84153 0.06594 0.00000
C523 C 0.24660 0.86636 0.06661 0.00000
H524 H 0.24736 0.89111 0.91002 0.00000
H525 H 0.26077 0.90467 0.95208 0.00000
H526 H 0.21124 0.84020 0.98095 0.00000
H527 H 0.19613 0.82735 0.93908 0.00000
C528 C 0.23997 0.87982 0.04355 0.00000
C529 C 0.24900 0.86904 0.01915 0.00000
C530 C 0.26472 0.84385 0.01877 0.00000
C531 C 0.27197 0.83060 0.04178 0.00000
H532 H 0.24021 0.87390 0.08267 0.00000
H533 H 0.22925 0.89642 0.04426 0.00000
H534 H 0.27031 0.83598 0.00276 0.00000
N535 N 0.24387 0.88374 0.99647 0.00000
H536 H 0.28308 0.81407 0.04111 0.00000
H537 H 0.24501 0.90055 0.99817 0.00000
C538 C 0.74040 0.16399 0.05916 0.00000
C539 C 0.75892 0.14011 0.06217 0.00000
C540 C 0.76646 0.12469 0.04052 0.00000
C541 C 0.75622 0.13251 0.01525 0.00000
C542 C 0.73830 0.15681 0.01249 0.00000
C543 C 0.73017 0.17199 0.03411 0.00000
C544 C 0.78286 0.13491 0.91528 0.00000
C545 C 0.76539 0.11139 0.92201 0.00000
H546 H 0.76614 0.13454 0.07884 0.00000
H547 H 0.77863 0.10874 0.04280 0.00000
H548 H 0.73185 0.16274 0.99582 0.00000
H549 H 0.71762 0.18785 0.03189 0.00000
C550 C 0.75832 0.10560 0.94802 0.00000
C551 C 0.76800 0.12296 0.96812 0.00000
C552 C 0.78486 0.14675 0.96101 0.00000
C553 C 0.79254 0.15234 0.93511 0.00000
H554 H 0.75855 0.09955 0.90892 0.00000
H555 H 0.74685 0.08979 0.95226 0.00000
H556 H 0.79092 0.15890 0.97396 0.00000
N557 N 0.76238 0.11583 0.99413 0.00000
H558 H 0.80440 0.16806 0.93085 0.00000
H559 H 0.76274 0.09927 0.99753 0.00000
C560 C 0.74041 0.83606 0.94083 0.00000
C561 C 0.75937 0.85976 0.93780 0.00000
C562 C 0.76713 0.87515 0.95942 0.00000
C563 C 0.75669 0.86747 0.98470 0.00000
C564 C 0.73831 0.84336 0.98748 0.00000
C565 C 0.72996 0.82821 0.96588 0.00000
C566 C 0.78301 0.86504 0.08470 0.00000
C567 C 0.76600 0.88870 0.07790 0.00000
H568 H 0.76674 0.86522 0.92112 0.00000
H569 H 0.77961 0.89098 0.95713 0.00000
H570 H 0.73170 0.83752 0.00415 0.00000
H571 H 0.71711 0.81247 0.96812 0.00000
C572 C 0.75910 0.89451 0.05188 0.00000
C573 C 0.76852 0.87701 0.03183 0.00000
C574 C 0.78492 0.85309 0.03901 0.00000
C575 C 0.79242 0.84747 0.06493 0.00000
H576 H 0.75934 0.90063 0.09097 0.00000
H577 H 0.74793 0.91041 0.04759 0.00000
H578 H 0.79078 0.84085 0.02609 0.00000
N579 N 0.76309 0.88414 0.00579 0.00000
H580 H 0.80398 0.83166 0.06924 0.00000
H581 H 0.76377 0.90069 0.00236 0.00000
C582 C 0.25985 0.16462 0.94096 0.00000
C583 C 0.24758 0.13876 0.93831 0.00000
C584 C 0.24303 0.12316 0.96024 0.00000
C585 C 0.25015 0.13272 0.98545 0.00000
C586 C 0.26175 0.15891 0.98784 0.00000
C587 C 0.26694 0.17435 0.96595 0.00000
C588 C 0.21922 0.13414 0.08482 0.00000
C589 C 0.24243 0.11299 0.07906 0.00000
H590 H 0.24251 0.13200 0.92168 0.00000
H591 H 0.23502 0.10591 0.95820 0.00000
H592 H 0.26597 0.16594 0.00444 0.00000
H593 H 0.27534 0.19157 0.96794 0.00000
C594 C 0.25188 0.10754 0.05336 0.00000
C595 C 0.23894 0.12297 0.03262 0.00000
C596 C 0.21625 0.14448 0.03876 0.00000
C597 C 0.20626 0.14965 0.06434 0.00000
H598 H 0.25152 0.10249 0.09260 0.00000
H599 H 0.26721 0.09330 0.04977 0.00000
H600 H 0.20785 0.15539 0.02537 0.00000
N601 N 0.24729 0.11604 0.00692 0.00000
H602 H 0.19057 0.16376 0.06795 0.00000
H603 H 0.25112 0.09960 0.00399 0.00000
C604 C 0.72040 0.64195 0.57988 0.00000
C605 C 0.74302 0.62003 0.57620 0.00000
C606 C 0.75265 0.61218 0.55116 0.00000
C607 C 0.74048 0.62591 0.52903 0.00000
C608 C 0.71838 0.64821 0.53306 0.00000
C609 C 0.70821 0.65578 0.55801 0.00000
C610 C 0.76394 0.65896 0.43423 0.00000
C611 C 0.75090 0.63315 0.43377 0.00000
H612 H 0.75160 0.61063 0.59069 0.00000
H613 H 0.76758 0.59745 0.54897 0.00000
H614 H 0.71051 0.65802 0.51869 0.00000
H615 H 0.69292 0.67038 0.56022 0.00000
C616 C 0.74556 0.61963 0.45696 0.00000
C617 C 0.75264 0.63127 0.48129 0.00000
C618 C 0.76502 0.65739 0.48145 0.00000
C619 C 0.77099 0.67075 0.45832 0.00000
H620 H 0.74584 0.62502 0.41777 0.00000
H621 H 0.73705 0.60239 0.45639 0.00000
H622 H 0.76923 0.66580 0.49740 0.00000
N623 N 0.74897 0.61660 0.50412 0.00000
H624 H 0.77990 0.68795 0.45886 0.00000
H625 H 0.75232 0.59992 0.50268 0.00000
C626 C 0.26971 0.64275 0.41895 0.00000
C627 C 0.26712 0.67005 0.41710 0.00000
C628 C 0.25566 0.68463 0.43846 0.00000
C629 C 0.24674 0.67270 0.46234 0.00000
C630 C 0.25020 0.64530 0.46405 0.00000
C631 C 0.26098 0.63069 0.44262 0.00000
C632 C 0.24407 0.67545 0.56405 0.00000
C633 C 0.21341 0.68864 0.55382 0.00000
H634 H 0.27308 0.67844 0.40139 0.00000
H635 H 0.25385 0.70279 0.43694 0.00000
H636 H 0.24515 0.63690 0.47988 0.00000
H637 H 0.26244 0.61245 0.44404 0.00000
C638 C 0.20998 0.69219 0.52705 0.00000
C639 C 0.23658 0.68260 0.50960 0.00000
C640 C 0.26685 0.66892 0.52014 0.00000
C641 C 0.27064 0.66578 0.54686 0.00000
H642 H 0.19524 0.69512 0.56510 0.00000
H643 H 0.18952 0.70114 0.52049 0.00000
H644 H 0.28459 0.66187 0.50892 0.00000
N645 N 0.23331 0.68782 0.48294 0.00000
H646 H 0.29135 0.65705 0.55350 0.00000
H647 H 0.22169 0.70197 0.47871 0.00000
C648 C 0.24033 0.33587 0.44087 0.00000
C649 C 0.25754 0.36024 0.43792 0.00000
C650 C 0.26445 0.37574 0.45962 0.00000
C651 C 0.25485 0.36751 0.48489 0.00000
C652 C 0.23825 0.34274 0.48759 0.00000
C653 C 0.23073 0.32747 0.46591 0.00000
C654 C 0.28245 0.36529 0.58473 0.00000
C655 C 0.26370 0.38836 0.57821 0.00000
H656 H 0.26433 0.36609 0.42125 0.00000
H657 H 0.27576 0.39201 0.45738 0.00000
H658 H 0.23225 0.33655 0.50425 0.00000
H659 H 0.21904 0.31128 0.46810 0.00000
C660 C 0.25610 0.39410 0.55226 0.00000
C661 C 0.26652 0.37711 0.53203 0.00000
C662 C 0.28468 0.35375 0.53894 0.00000
C663 C 0.29287 0.34823 0.56476 0.00000
H664 H 0.25635 0.39993 0.59139 0.00000
H665 H 0.24377 0.40961 0.54816 0.00000
H666 H 0.29127 0.34184 0.52589 0.00000
N667 N 0.26030 0.38423 0.50608 0.00000
H668 H 0.30559 0.33281 0.56889 0.00000
H669 H 0.25976 0.40081 0.50277 0.00000
C670 C 0.60088 0.66556 0.65798 0.00000
C671 C 0.59766 0.67357 0.68411 0.00000
C672 C 0.56349 0.68033 0.69421 0.00000
C673 C 0.53148 0.67917 0.67886 0.00000
C674 C 0.53506 0.67058 0.65280 0.00000
C675 C 0.56921 0.66428 0.64256 0.00000
C676 C 0.39053 0.66178 0.67124 0.00000
C677 C 0.39690 0.68742 0.67982 0.00000
H678 H 0.61863 0.67439 0.69474 0.00000
H679 H 0.56174 0.68578 0.71161 0.00000
H680 H 0.51407 0.66911 0.64230 0.00000
H681 H 0.57107 0.65908 0.62504 0.00000
C682 C 0.43247 0.69572 0.68525 0.00000
C683 C 0.46282 0.67900 0.68215 0.00000
C684 C 0.45605 0.65345 0.67301 0.00000
C685 C 0.42052 0.64500 0.66804 0.00000
H686 H 0.37708 0.69896 0.68192 0.00000
H687 H 0.43633 0.71282 0.69110 0.00000
H688 H 0.47584 0.64207 0.67027 0.00000
N689 N 0.49794 0.68754 0.68922 0.00000
H690 H 0.41657 0.62777 0.66244 0.00000
H691 H 0.49903 0.69930 0.70135 0.00000
C692 C 0.28000 0.57994 0.64261 0.00000
C693 C 0.26366 0.57521 0.61821 0.00000
C694 C 0.25718 0.54978 0.61001 0.00000
C695 C 0.26635 0.52829 0.62577 0.00000
C696 C 0.28206 0.53337 0.65045 0.00000
C697 C 0.28915 0.55871 0.65846 0.00000
C698 C 0.23814 0.43387 0.65804 0.00000
C699 C 0.25774 0.43305 0.63442 0.00000
H700 H 0.25717 0.58926 0.60742 0.00000
H701 H 0.24646 0.54689 0.59365 0.00000
H702 H 0.28775 0.51943 0.66156 0.00000
H703 H 0.30026 0.56163 0.67475 0.00000
C704 C 0.26567 0.45600 0.62113 0.00000
C705 C 0.25477 0.48044 0.63089 0.00000
C706 C 0.23575 0.48099 0.65491 0.00000
C707 C 0.22723 0.45808 0.66796 0.00000
H708 H 0.26542 0.41697 0.62758 0.00000
H709 H 0.27857 0.45518 0.60533 0.00000
H710 H 0.22882 0.49704 0.66213 0.00000
N711 N 0.26138 0.50297 0.61627 0.00000
H712 H 0.21396 0.45885 0.68366 0.00000
H713 H 0.26252 0.50104 0.59949 0.00000
C714 C 0.39911 0.33408 0.65968 0.00000
C715 C 0.40200 0.33859 0.68665 0.00000
C716 C 0.43598 0.33691 0.69895 0.00000
C717 C 0.46815 0.33095 0.68492 0.00000
C718 C 0.46491 0.32699 0.65775 0.00000
C719 C 0.43093 0.32819 0.64554 0.00000
C720 C 0.60939 0.34249 0.67131 0.00000
C721 C 0.60259 0.32341 0.69041 0.00000
H722 H 0.38093 0.34271 0.69638 0.00000
H723 H 0.43752 0.33982 0.71695 0.00000
H724 H 0.48600 0.32351 0.64785 0.00000
H725 H 0.42929 0.32501 0.62753 0.00000
C726 C 0.56686 0.31858 0.69873 0.00000
C727 C 0.53677 0.33228 0.68827 0.00000
C728 C 0.54397 0.35101 0.66872 0.00000
C729 C 0.57966 0.35619 0.66073 0.00000
H730 H 0.62223 0.31395 0.69759 0.00000
H731 H 0.56271 0.30592 0.71158 0.00000
H732 H 0.52437 0.36004 0.66103 0.00000
N733 N 0.50148 0.32796 0.69817 0.00000
H734 H 0.58390 0.36908 0.64805 0.00000
H735 H 0.50011 0.32287 0.71427 0.00000
C736 C 0.75499 0.55887 0.66908 0.00000
C737 C 0.79169 0.55333 0.66250 0.00000
C738 C 0.80335 0.52762 0.66010 0.00000
C739 C 0.77903 0.50664 0.66392 0.00000
C740 C 0.74206 0.51253 0.67000 0.00000
C741 C 0.73054 0.53815 0.67286 0.00000
C742 C 0.73636 0.41245 0.64009 0.00000
C743 C 0.76525 0.41149 0.65828 0.00000
H744 H 0.80838 0.56703 0.65975 0.00000
H745 H 0.82794 0.52419 0.65585 0.00000
H746 H 0.72510 0.49894 0.67212 0.00000
H747 H 0.70600 0.54162 0.67740 0.00000
C748 C 0.78295 0.43429 0.66587 0.00000
C749 C 0.77242 0.45872 0.65588 0.00000
C750 C 0.74285 0.45943 0.63802 0.00000
C751 C 0.72561 0.43665 0.63007 0.00000
H752 H 0.77265 0.39541 0.66528 0.00000
H753 H 0.80230 0.43337 0.67789 0.00000
H754 H 0.73478 0.47550 0.63147 0.00000
N755 N 0.79220 0.48105 0.66281 0.00000
H756 H 0.70646 0.43751 0.61780 0.00000
H757 H 0.81512 0.47878 0.66687 0.00000
C758 C 0.60104 0.34137 0.34184 0.00000
C759 C 0.59644 0.32748 0.36525 0.00000
C760 C 0.56186 0.32556 0.37665 0.00000
C761 C 0.53077 0.33712 0.36513 0.00000
C762 C 0.53571 0.35056 0.34133 0.00000
C763 C 0.57029 0.35289 0.33019 0.00000
C764 C 0.39003 0.33536 0.34549 0.00000
C765 C 0.39647 0.34600 0.37034 0.00000
H766 H 0.61678 0.31952 0.37323 0.00000
H767 H 0.55920 0.31637 0.39233 0.00000
H768 H 0.51534 0.35799 0.33297 0.00000
H769 H 0.57308 0.36234 0.31461 0.00000
C770 C 0.43187 0.34646 0.38055 0.00000
C771 C 0.46198 0.33663 0.36642 0.00000
C772 C 0.45518 0.32649 0.34126 0.00000
C773 C 0.41979 0.32558 0.33124 0.00000
H774 H 0.37681 0.35277 0.38008 0.00000
H775 H 0.43578 0.35347 0.39720 0.00000
H776 H 0.47484 0.32030 0.33121 0.00000
N777 N 0.49684 0.33606 0.37790 0.00000
H778 H 0.41577 0.31830 0.31467 0.00000
H779 H 0.49749 0.33492 0.39476 0.00000
C780 C 0.75934 0.44075 0.33642 0.00000
C781 C 0.73687 0.43760 0.35851 0.00000
C782 C 0.72733 0.45908 0.37360 0.00000
C783 C 0.73942 0.48434 0.36717 0.00000
C784 C 0.76136 0.48726 0.34462 0.00000
C785 C 0.77146 0.46578 0.32982 0.00000
C786 C 0.71582 0.58468 0.36444 0.00000
C787 C 0.72905 0.57732 0.38913 0.00000
H788 H 0.72835 0.42094 0.36311 0.00000
H789 H 0.71250 0.45671 0.38835 0.00000
H790 H 0.76917 0.50393 0.33959 0.00000
H791 H 0.78664 0.46810 0.31517 0.00000
C792 C 0.73446 0.55113 0.39499 0.00000
C793 C 0.72727 0.53146 0.37655 0.00000
C794 C 0.71471 0.53920 0.35165 0.00000
C795 C 0.70866 0.56528 0.34594 0.00000
H796 H 0.73417 0.59012 0.40171 0.00000
H797 H 0.74309 0.54646 0.41156 0.00000
H798 H 0.71042 0.52654 0.33883 0.00000
N799 N 0.73103 0.50526 0.38361 0.00000
H800 H 0.69963 0.56997 0.32942 0.00000
H801 H 0.72780 0.50158 0.39996 0.00000
C802 C 0.39889 0.65835 0.34015 0.00000
C803 C 0.40329 0.66041 0.36731 0.00000
C804 C 0.43773 0.65685 0.37852 0.00000
C805 C 0.46887 0.65138 0.36321 0.00000
C806 C 0.46414 0.64989 0.33590 0.00000
C807 C 0.42969 0.65297 0.32473 0.00000
C808 C 0.60989 0.66069 0.34697 0.00000
C809 C 0.60302 0.64019 0.36451 0.00000
H810 H 0.38292 0.66415 0.37790 0.00000
H811 H 0.44026 0.65813 0.39666 0.00000
H812 H 0.48456 0.64679 0.32519 0.00000
H813 H 0.42704 0.65141 0.30656 0.00000
C814 C 0.56748 0.63550 0.37331 0.00000
C815 C 0.53764 0.65077 0.36486 0.00000
C816 C 0.54487 0.67096 0.34683 0.00000
C817 C 0.58040 0.67597 0.33839 0.00000
H818 H 0.62249 0.62968 0.37033 0.00000
H819 H 0.56330 0.62187 0.38512 0.00000
H820 H 0.52540 0.68109 0.34047 0.00000
N821 N 0.50264 0.64644 0.37526 0.00000
H822 H 0.58470 0.68981 0.32677 0.00000
H823 H 0.50178 0.64000 0.39089 0.00000
C824 C 0.28017 0.41987 0.35604 0.00000
C825 C 0.27718 0.42634 0.38260 0.00000
C826 C 0.27675 0.45234 0.39030 0.00000
C827 C 0.27894 0.47269 0.37198 0.00000
C828 C 0.28117 0.46588 0.34532 0.00000
C829 C 0.28228 0.43996 0.33765 0.00000
C830 C 0.24259 0.56674 0.34287 0.00000
C831 C 0.27260 0.56767 0.36012 0.00000
H832 H 0.27553 0.41308 0.39517 0.00000
H833 H 0.27495 0.45640 0.40808 0.00000
H834 H 0.28191 0.47905 0.33267 0.00000
H835 H 0.28447 0.43586 0.31985 0.00000
C836 C 0.28513 0.54500 0.37203 0.00000
C837 C 0.26858 0.52070 0.36707 0.00000
C838 C 0.23892 0.52000 0.34929 0.00000
C839 C 0.22597 0.54267 0.33775 0.00000
H840 H 0.28417 0.58365 0.36364 0.00000
H841 H 0.30503 0.54590 0.38360 0.00000
H842 H 0.22788 0.50400 0.34522 0.00000
N843 N 0.28054 0.49856 0.38053 0.00000
H844 H 0.20577 0.54183 0.32636 0.00000
H845 H 0.28999 0.50115 0.39584 0.00000
C846 C 0.75945 0.33317 0.55874 0.00000
C847 C 0.76964 0.35961 0.55910 0.00000
C848 C 0.77449 0.37311 0.53584 0.00000
C849 C 0.76909 0.36095 0.51155 0.00000
C850 C 0.75812 0.33451 0.51152 0.00000
C851 C 0.75393 0.32089 0.53469 0.00000
C852 C 0.72683 0.36633 0.41445 0.00000
C853 C 0.76331 0.37507 0.41686 0.00000
H854 H 0.77325 0.36816 0.57509 0.00000
H855 H 0.78148 0.39069 0.53634 0.00000
H856 H 0.75361 0.32608 0.49562 0.00000
H857 H 0.74730 0.30319 0.53421 0.00000
C858 C 0.77936 0.37732 0.44137 0.00000
C859 C 0.75995 0.37078 0.46418 0.00000
C860 C 0.72357 0.36153 0.46140 0.00000
C861 C 0.70730 0.35973 0.43701 0.00000
H862 H 0.77684 0.37944 0.40190 0.00000
H863 H 0.80362 0.38331 0.44273 0.00000
H864 H 0.71027 0.35654 0.47623 0.00000
N865 N 0.77624 0.37470 0.48856 0.00000
H866 H 0.68284 0.35399 0.43563 0.00000
H867 H 0.79255 0.38700 0.48953 0.00000
C868 C 0.22851 0.08142 0.85363 0.00000
C869 C 0.19682 0.07777 0.83836 0.00000
C870 C 0.19139 0.05440 0.82517 0.00000
C871 C 0.21695 0.03388 0.82685 0.00000
C872 C 0.24829 0.03765 0.84269 0.00000
C873 C 0.25407 0.06112 0.85548 0.00000
C874 C 0.24458 0.93404 0.82906 0.00000
C875 C 0.24115 0.94263 0.80314 0.00000
H876 H 0.17931 0.09115 0.83704 0.00000
H877 H 0.17025 0.05226 0.81494 0.00000
H878 H 0.26538 0.02411 0.84458 0.00000
H879 H 0.27545 0.06340 0.86552 0.00000
C880 C 0.23085 0.96821 0.79790 0.00000
C881 C 0.22396 0.98611 0.81811 0.00000
C882 C 0.22826 0.97733 0.84405 0.00000
C883 C 0.23788 0.95169 0.84932 0.00000
H884 H 0.24575 0.93106 0.78934 0.00000
H885 H 0.22845 0.97366 0.78054 0.00000
H886 H 0.22457 0.98899 0.85788 0.00000
N887 N 0.21163 0.01123 0.81214 0.00000
H888 H 0.23991 0.94613 0.86672 0.00000
H889 H 0.19935 0.01296 0.79774 0.00000
C890 C 0.89900 0.15950 0.84311 0.00000
C891 C 0.90362 0.18158 0.85904 0.00000
C892 C 0.93826 0.18800 0.86853 0.00000
C893 C 0.96940 0.17294 0.86237 0.00000
C894 C 0.96444 0.15112 0.84591 0.00000
C895 C 0.92979 0.14442 0.83682 0.00000
C896 C 0.10996 0.16729 0.84280 0.00000
C897 C 0.10384 0.16739 0.86988 0.00000
H898 H 0.88326 0.19198 0.86332 0.00000
H899 H 0.94095 0.20268 0.87924 0.00000
H900 H 0.98483 0.14106 0.84107 0.00000
H901 H 0.92700 0.12954 0.82630 0.00000
C902 C 0.06853 0.17089 0.87964 0.00000
C903 C 0.03819 0.17416 0.86295 0.00000
C904 C 0.04467 0.17349 0.83578 0.00000
C905 C 0.07998 0.17048 0.82602 0.00000
H906 H 0.12366 0.16513 0.88139 0.00000
H907 H 0.06484 0.17106 0.89773 0.00000
H908 H 0.02486 0.17509 0.82422 0.00000
N909 N 0.00342 0.17912 0.87346 0.00000
H910 H 0.08377 0.17058 0.80789 0.00000
H911 H 0.00289 0.18687 0.88848 0.00000
loop_
_geom_bond_atom_site_label_1
_geom_bond_atom_site_label_2
_geom_bond_distance
_geom_bond_site_symmetry_2
_ccdc_geom_bond_type
O0 In4 2.242 . S
O0 C8 1.247 . A
O1 In4 2.259 . S
O1 C8 1.260 . A
O2 In4 2.300 . S
O2 C11 1.245 . A
O3 In4 2.234 . S
O3 C11 1.251 . A
In4 O6 2.242 . S
In4 O7 2.285 . S
In4 O9 2.397 . S
In4 O10 2.185 . S
C5 O9 1.269 . A
C5 O10 1.254 . A
O6 C12 1.251 . A
O7 C12 1.256 . A
O13 In17 2.242 . S
O13 C21 1.247 . A
O14 In17 2.259 . S
O14 C21 1.260 . A
O15 In17 2.300 . S
O15 C24 1.245 . A
O16 In17 2.234 . S
O16 C24 1.251 . A
In17 O19 2.242 . S
In17 O20 2.285 . S
In17 O22 2.397 . S
In17 O23 2.185 . S
C18 O22 1.269 . A
C18 O23 1.254 . A
O19 C25 1.251 . A
O20 C25 1.256 . A
O26 In30 2.242 . S
O26 C34 1.247 . A
O27 In30 2.259 . S
O27 C34 1.260 . A
O28 In30 2.300 . S
O28 C37 1.245 . A
O29 In30 2.234 . S
O29 C37 1.251 . A
In30 O32 2.242 . S
In30 O33 2.285 . S
In30 O35 2.397 . S
In30 O36 2.185 . S
C31 O35 1.269 . A
C31 O36 1.254 . A
O32 C38 1.251 . A
O33 C38 1.256 . A
O39 In43 2.242 . S
O39 C47 1.247 . A
O40 In43 2.259 . S
O40 C47 1.260 . A
O41 In43 2.300 . S
O41 C50 1.245 . A
O42 In43 2.234 . S
O42 C50 1.251 . A
In43 O45 2.242 . S
In43 O46 2.285 . S
In43 O48 2.397 . S
In43 O49 2.185 . S
C44 O48 1.269 . A
C44 O49 1.254 . A
O45 C51 1.251 . A
O46 C51 1.256 . A
O52 In56 2.242 . S
O52 C60 1.247 . A
O53 In56 2.259 . S
O53 C60 1.260 . A
O54 In56 2.300 . S
O54 C63 1.245 . A
O55 In56 2.234 . S
O55 C63 1.251 . A
In56 O58 2.242 . S
In56 O59 2.285 . S
In56 O61 2.397 . S
In56 O62 2.185 . S
C57 O61 1.269 . A
C57 O62 1.254 . A
O58 C64 1.251 . A
O59 C64 1.256 . A
O65 In69 2.242 . S
O65 C73 1.247 . A
O66 In69 2.259 . S
O66 C73 1.260 . A
O67 In69 2.300 . S
O67 C76 1.245 . A
O68 In69 2.234 . S
O68 C76 1.251 . A
In69 O71 2.242 . S
In69 O72 2.285 . S
In69 O74 2.397 . S
In69 O75 2.185 . S
C70 O74 1.269 . A
C70 O75 1.254 . A
O71 C77 1.251 . A
O72 C77 1.256 . A
O78 In82 2.242 . S
O78 C86 1.247 . A
O79 In82 2.259 . S
O79 C86 1.260 . A
O80 In82 2.300 . S
O80 C89 1.245 . A
O81 In82 2.234 . S
O81 C89 1.251 . A
In82 O84 2.242 . S
In82 O85 2.285 . S
In82 O87 2.397 . S
In82 O88 2.185 . S
C83 O87 1.269 . A
C83 O88 1.254 . A
O84 C90 1.251 . A
O85 C90 1.256 . A
O91 In95 2.242 . S
O91 C99 1.247 . A
O92 In95 2.259 . S
O92 C99 1.260 . A
O93 In95 2.300 . S
O93 C102 1.245 . A
O94 In95 2.234 . S
O94 C102 1.251 . A
In95 O97 2.242 . S
In95 O98 2.285 . S
In95 O100 2.397 . S
In95 O101 2.185 . S
C96 O100 1.269 . A
C96 O101 1.254 . A
O97 C103 1.251 . A
O98 C103 1.256 . A
O104 In108 2.242 . S
O104 C112 1.247 . A
O105 In108 2.259 . S
O105 C112 1.260 . A
O106 In108 2.300 . S
O106 C115 1.245 . A
O107 In108 2.234 . S
O107 C115 1.251 . A
In108 O110 2.242 . S
In108 O111 2.285 . S
In108 O113 2.397 . S
In108 O114 2.185 . S
C109 O113 1.269 . A
C109 O114 1.254 . A
O110 C116 1.251 . A
O111 C116 1.256 . A
O117 In121 2.242 . S
O117 C125 1.247 . A
O118 In121 2.259 . S
O118 C125 1.260 . A
O119 In121 2.300 . S
O119 C128 1.245 . A
O120 In121 2.234 . S
O120 C128 1.251 . A
In121 O123 2.242 . S
In121 O124 2.285 . S
In121 O126 2.397 . S
In121 O127 2.185 . S
C122 O126 1.269 . A
C122 O127 1.254 . A
O123 C129 1.251 . A
O124 C129 1.256 . A
O130 In134 2.242 . S
O130 C138 1.247 . A
O131 In134 2.259 . S
O131 C138 1.260 . A
O132 In134 2.300 . S
O132 C141 1.245 . A
O133 In134 2.234 . S
O133 C141 1.251 . A
In134 O136 2.242 . S
In134 O137 2.285 . S
In134 O139 2.397 . S
In134 O140 2.185 . S
C135 O139 1.269 . A
C135 O140 1.254 . A
O136 C142 1.251 . A
O137 C142 1.256 . A
O143 In147 2.242 . S
O143 C151 1.247 . A
O144 In147 2.259 . S
O144 C151 1.260 . A
O145 In147 2.300 . S
O145 C154 1.245 . A
O146 In147 2.234 . S
O146 C154 1.251 . A
In147 O149 2.242 . S
In147 O150 2.285 . S
In147 O152 2.397 . S
In147 O153 2.185 . S
C148 O152 1.269 . A
C148 O153 1.254 . A
O149 C155 1.251 . A
O150 C155 1.256 . A
O156 In160 2.242 . S
O156 C164 1.247 . A
O157 In160 2.259 . S
O157 C164 1.260 . A
O158 In160 2.300 . S
O158 C167 1.245 . A
O159 In160 2.234 . S
O159 C167 1.251 . A
In160 O162 2.242 . S
In160 O163 2.285 . S
In160 O165 2.397 . S
In160 O166 2.185 . S
C161 O165 1.269 . A
C161 O166 1.254 . A
O162 C168 1.251 . A
O163 C168 1.256 . A
O169 In173 2.242 . S
O169 C177 1.247 . A
O170 In173 2.259 . S
O170 C177 1.260 . A
O171 In173 2.300 . S
O171 C180 1.245 . A
O172 In173 2.234 . S
O172 C180 1.251 . A
In173 O175 2.242 . S
In173 O176 2.285 . S
In173 O178 2.397 . S
In173 O179 2.185 . S
C174 O178 1.269 . A
C174 O179 1.254 . A
O175 C181 1.251 . A
O176 C181 1.256 . A
O182 In186 2.242 . S
O182 C190 1.247 . A
O183 In186 2.259 . S
O183 C190 1.260 . A
O184 In186 2.300 . S
O184 C193 1.245 . A
O185 In186 2.234 . S
O185 C193 1.251 . A
In186 O188 2.242 . S
In186 O189 2.285 . S
In186 O191 2.397 . S
In186 O192 2.185 . S
C187 O191 1.269 . A
C187 O192 1.254 . A
O188 C194 1.251 . A
O189 C194 1.256 . A
O195 In199 2.242 . S
O195 C203 1.247 . A
O196 In199 2.259 . S
O196 C203 1.260 . A
O197 In199 2.300 . S
O197 C206 1.245 . A
O198 In199 2.234 . S
O198 C206 1.251 . A
In199 O201 2.242 . S
In199 O202 2.285 . S
In199 O204 2.397 . S
In199 O205 2.185 . S
C200 O204 1.269 . A
C200 O205 1.254 . A
O201 C207 1.251 . A
O202 C207 1.256 . A
C208 C209 1.394 . A
C208 C213 1.387 . A
C209 C210 1.378 . A
C209 H216 0.931 . S
C210 C211 1.394 . A
C210 H217 0.929 . S
C211 C212 1.401 . A
C211 N227 1.386 . S
C212 C213 1.375 . A
C212 H218 0.929 . S
C213 H219 0.932 . S
C214 C215 1.394 . A
C214 C223 1.387 . A
C215 C220 1.378 . A
C215 H224 0.931 . S
C220 C221 1.394 . A
C220 H225 0.929 . S
C221 C222 1.401 . A
C221 N227 1.386 . S
C222 C223 1.375 . A
C222 H226 0.929 . S
C223 H228 0.932 . S
N227 H229 0.860 . S
C230 C231 1.394 . A
C230 C235 1.387 . A
C231 C232 1.378 . A
C231 H238 0.931 . S
C232 C233 1.394 . A
C232 H239 0.929 . S
C233 C234 1.401 . A
C233 N249 1.386 . S
C234 C235 1.375 . A
C234 H240 0.929 . S
C235 H241 0.932 . S
C236 C237 1.394 . A
C236 C245 1.387 . A
C237 C242 1.378 . A
C237 H246 0.931 . S
C242 C243 1.394 . A
C242 H247 0.929 . S
C243 C244 1.401 . A
C243 N249 1.386 . S
C244 C245 1.375 . A
C244 H248 0.929 . S
C245 H250 0.932 . S
N249 H251 0.860 . S
C252 C253 1.394 . A
C252 C257 1.387 . A
C253 C254 1.378 . A
C253 H260 0.931 . S
C254 C255 1.394 . A
C254 H261 0.929 . S
C255 C256 1.401 . A
C255 N271 1.386 . S
C256 C257 1.375 . A
C256 H262 0.929 . S
C257 H263 0.932 . S
C258 C259 1.394 . A
C258 C267 1.387 . A
C259 C264 1.378 . A
C259 H268 0.931 . S
C264 C265 1.394 . A
C264 H269 0.929 . S
C265 C266 1.401 . A
C265 N271 1.386 . S
C266 C267 1.375 . A
C266 H270 0.929 . S
C267 H272 0.932 . S
N271 H273 0.860 . S
C274 C275 1.394 . A
C274 C279 1.387 . A
C275 C276 1.378 . A
C275 H282 0.931 . S
C276 C277 1.394 . A
C276 H283 0.929 . S
C277 C278 1.401 . A
C277 N293 1.386 . S
C278 C279 1.375 . A
C278 H284 0.929 . S
C279 H285 0.932 . S
C280 C281 1.394 . A
C280 C289 1.387 . A
C281 C286 1.378 . A
C281 H290 0.931 . S
C286 C287 1.394 . A
C286 H291 0.929 . S
C287 C288 1.401 . A
C287 N293 1.386 . S
C288 C289 1.375 . A
C288 H292 0.929 . S
C289 H294 0.932 . S
N293 H295 0.860 . S
C296 C297 1.394 . A
C296 C301 1.387 . A
C297 C298 1.378 . A
C297 H304 0.931 . S
C298 C299 1.394 . A
C298 H305 0.929 . S
C299 C300 1.401 . A
C299 N315 1.386 . S
C300 C301 1.375 . A
C300 H306 0.929 . S
C301 H307 0.932 . S
C302 C303 1.394 . A
C302 C311 1.387 . A
C303 C308 1.378 . A
C303 H312 0.931 . S
C308 C309 1.394 . A
C308 H313 0.929 . S
C309 C310 1.401 . A
C309 N315 1.386 . S
C310 C311 1.375 . A
C310 H314 0.929 . S
C311 H316 0.932 . S
N315 H317 0.860 . S
C318 C319 1.394 . A
C318 C323 1.387 . A
C319 C320 1.378 . A
C319 H326 0.931 . S
C320 C321 1.394 . A
C320 H327 0.929 . S
C321 C322 1.401 . A
C321 N337 1.386 . S
C322 C323 1.375 . A
C322 H328 0.929 . S
C323 H329 0.932 . S
C324 C325 1.394 . A
C324 C333 1.387 . A
C325 C330 1.378 . A
C325 H334 0.931 . S
C330 C331 1.394 . A
C330 H335 0.929 . S
C331 C332 1.401 . A
C331 N337 1.386 . S
C332 C333 1.375 . A
C332 H336 0.929 . S
C333 H338 0.932 . S
N337 H339 0.860 . S
C340 C341 1.394 . A
C340 C345 1.387 . A
C341 C342 1.378 . A
C341 H348 0.931 . S
C342 C343 1.394 . A
C342 H349 0.929 . S
C343 C344 1.401 . A
C343 N359 1.386 . S
C344 C345 1.375 . A
C344 H350 0.929 . S
C345 H351 0.932 . S
C346 C347 1.394 . A
C346 C355 1.387 . A
C347 C352 1.378 . A
C347 H356 0.931 . S
C352 C353 1.394 . A
C352 H357 0.929 . S
C353 C354 1.401 . A
C353 N359 1.386 . S
C354 C355 1.375 . A
C354 H358 0.929 . S
C355 H360 0.932 . S
N359 H361 0.860 . S
C362 C363 1.394 . A
C362 C367 1.387 . A
C363 C364 1.378 . A
C363 H370 0.931 . S
C364 C365 1.394 . A
C364 H371 0.929 . S
C365 C366 1.401 . A
C365 N381 1.386 . S
C366 C367 1.375 . A
C366 H372 0.929 . S
C367 H373 0.932 . S
C368 C369 1.394 . A
C368 C377 1.387 . A
C369 C374 1.378 . A
C369 H378 0.931 . S
C374 C375 1.394 . A
C374 H379 0.929 . S
C375 C376 1.401 . A
C375 N381 1.386 . S
C376 C377 1.375 . A
C376 H380 0.929 . S
C377 H382 0.932 . S
N381 H383 0.860 . S
C384 C385 1.394 . A
C384 C389 1.387 . A
C385 C386 1.378 . A
C385 H392 0.931 . S
C386 C387 1.394 . A
C386 H393 0.929 . S
C387 C388 1.401 . A
C387 N403 1.386 1_545 S
C388 C389 1.375 . A
C388 H394 0.929 1_545 S
C389 H395 0.932 . S
C390 C391 1.394 . A
C390 C399 1.387 . A
C391 C396 1.378 . A
C391 H400 0.931 . S
C396 C397 1.394 . A
C396 H401 0.929 . S
C397 C398 1.401 . A
C397 N403 1.386 . S
C398 C399 1.375 . A
C398 H402 0.929 . S
C399 H404 0.932 . S
N403 H405 0.860 . S
C406 C407 1.394 . A
C406 C411 1.387 . A
C407 C408 1.378 . A
C407 H414 0.931 . S
C408 C409 1.394 . A
C408 H415 0.929 . S
C409 C410 1.401 . A
C409 N425 1.386 1_455 S
C410 C411 1.375 . A
C410 H416 0.929 . S
C411 H417 0.932 . S
C412 C413 1.394 . A
C412 C421 1.387 . A
C413 C418 1.378 . A
C413 H422 0.931 . S
C418 C419 1.394 . A
C418 H423 0.929 . S
C419 C420 1.401 . A
C419 N425 1.386 . S
C420 C421 1.375 . A
C420 H424 0.929 . S
C421 H426 0.932 . S
N425 H427 0.859 1_655 S
C428 C429 1.394 . A
C428 C433 1.387 . A
C429 C430 1.378 . A
C429 H436 0.931 . S
C430 C431 1.394 . A
C430 H437 0.929 . S
C431 C432 1.401 . A
C431 N447 1.386 1_565 S
C432 C433 1.375 . A
C432 H438 0.929 1_565 S
C433 H439 0.932 . S
C434 C435 1.394 . A
C434 C443 1.387 . A
C435 C440 1.378 . A
C435 H444 0.931 . S
C440 C441 1.394 . A
C440 H445 0.929 . S
C441 C442 1.401 . A
C441 N447 1.386 . S
C442 C443 1.375 . A
C442 H446 0.929 . S
C443 H448 0.932 . S
N447 H449 0.860 . S
C450 C451 1.394 . A
C450 C455 1.387 . A
C451 C452 1.378 . A
C451 H458 0.931 . S
C452 C453 1.394 . A
C452 H459 0.929 . S
C453 C454 1.401 . A
C453 N469 1.386 1_655 S
C454 C455 1.375 . A
C454 H460 0.929 . S
C455 H461 0.932 . S
C456 C457 1.394 . A
C456 C465 1.387 . A
C457 C462 1.378 . A
C457 H466 0.931 . S
C462 C463 1.394 . A
C462 H467 0.929 . S
C463 C464 1.401 . A
C463 N469 1.386 . S
C464 C465 1.375 . A
C464 H468 0.929 . S
C465 H470 0.932 . S
N469 H471 0.860 . S
C472 C473 1.394 . A
C472 C477 1.387 . A
C473 C474 1.378 . A
C473 H480 0.931 . S
C474 C475 1.394 . A
C474 H481 0.929 . S
C475 C476 1.401 . A
C475 N491 1.386 1_545 S
C476 C477 1.375 . A
C476 H482 0.929 . S
C477 H483 0.932 . S
C478 C479 1.394 . A
C478 C487 1.387 . A
C479 C484 1.378 . A
C479 H488 0.931 . S
C484 C485 1.394 . A
C484 H489 0.929 . S
C485 C486 1.401 . A
C485 N491 1.386 . S
C486 C487 1.375 . A
C486 H490 0.929 . S
C487 H492 0.932 . S
N491 H493 0.860 . S
C494 C495 1.394 . A
C494 C499 1.387 . A
C495 C496 1.378 . A
C495 H502 0.931 . S
C496 C497 1.394 . A
C496 H503 0.929 . S
C497 C498 1.401 . A
C497 N513 1.386 1_655 S
C498 C499 1.375 . A
C498 H504 0.929 . S
C499 H505 0.932 . S
C500 C501 1.394 . A
C500 C509 1.387 . A
C501 C506 1.378 . A
C501 H510 0.931 . S
C506 C507 1.394 . A
C506 H511 0.929 . S
C507 C508 1.401 . A
C507 N513 1.386 . S
C508 C509 1.375 . A
C508 H512 0.929 . S
C509 H514 0.932 . S
N513 H515 0.861 . S
C516 C517 1.394 . A
C516 C521 1.387 . A
C517 C518 1.378 . A
C517 H524 0.931 . S
C518 C519 1.394 . A
C518 H525 0.929 . S
C519 C520 1.401 . A
C519 N535 1.386 . S
C520 C521 1.375 . A
C520 H526 0.929 . S
C521 H527 0.932 . S
C522 C523 1.394 . A
C522 C531 1.387 . A
C523 C528 1.378 . A
C523 H532 0.931 . S
C528 C529 1.394 . A
C528 H533 0.929 . S
C529 C530 1.401 . A
C529 N535 1.386 1_554 S
C530 C531 1.375 . A
C530 H534 0.929 . S
C531 H536 0.932 . S
N535 H537 0.860 . S
C538 C539 1.394 . A
C538 C543 1.387 . A
C539 C540 1.378 . A
C539 H546 0.931 . S
C540 C541 1.394 . A
C540 H547 0.929 . S
C541 C542 1.401 . A
C541 N557 1.386 1_554 S
C542 C543 1.375 . A
C542 H548 0.929 1_554 S
C543 H549 0.932 . S
C544 C545 1.394 . A
C544 C553 1.387 . A
C545 C550 1.378 . A
C545 H554 0.931 . S
C550 C551 1.394 . A
C550 H555 0.929 . S
C551 C552 1.401 . A
C551 N557 1.386 . S
C552 C553 1.375 . A
C552 H556 0.929 . S
C553 H558 0.932 . S
N557 H559 0.860 . S
C560 C561 1.394 . A
C560 C565 1.387 . A
C561 C562 1.378 . A
C561 H568 0.931 . S
C562 C563 1.394 . A
C562 H569 0.929 . S
C563 C564 1.401 . A
C563 N579 1.386 1_556 S
C564 C565 1.375 . A
C564 H570 0.929 1_556 S
C565 H571 0.932 . S
C566 C567 1.394 . A
C566 C575 1.387 . A
C567 C572 1.378 . A
C567 H576 0.931 . S
C572 C573 1.394 . A
C572 H577 0.929 . S
C573 C574 1.401 . A
C573 N579 1.386 . S
C574 C575 1.375 . A
C574 H578 0.929 . S
C575 H580 0.932 . S
N579 H581 0.860 . S
C582 C583 1.394 . A
C582 C587 1.387 . A
C583 C584 1.378 . A
C583 H590 0.931 . S
C584 C585 1.394 . A
C584 H591 0.929 . S
C585 C586 1.401 . A
C585 N601 1.386 1_556 S
C586 C587 1.375 . A
C586 H592 0.929 1_556 S
C587 H593 0.932 . S
C588 C589 1.394 . A
C588 C597 1.387 . A
C589 C594 1.378 . A
C589 H598 0.931 . S
C594 C595 1.394 . A
C594 H599 0.929 . S
C595 C596 1.401 . A
C595 N601 1.386 . S
C596 C597 1.375 . A
C596 H600 0.929 . S
C597 H602 0.932 . S
N601 H603 0.860 . S
C604 C605 1.394 . A
C604 C609 1.387 . A
C605 C606 1.378 . A
C605 H612 0.931 . S
C606 C607 1.394 . A
C606 H613 0.929 . S
C607 C608 1.401 . A
C607 N623 1.386 . S
C608 C609 1.375 . A
C608 H614 0.929 . S
C609 H615 0.932 . S
C610 C611 1.394 . A
C610 C619 1.387 . A
C611 C616 1.378 . A
C611 H620 0.931 . S
C616 C617 1.394 . A
C616 H621 0.929 . S
C617 C618 1.401 . A
C617 N623 1.386 . S
C618 C619 1.375 . A
C618 H622 0.929 . S
C619 H624 0.932 . S
N623 H625 0.860 . S
C626 C627 1.394 . A
C626 C631 1.387 . A
C627 C628 1.378 . A
C627 H634 0.931 . S
C628 C629 1.394 . A
C628 H635 0.929 . S
C629 C630 1.401 . A
C629 N645 1.386 . S
C630 C631 1.375 . A
C630 H636 0.929 . S
C631 H637 0.932 . S
C632 C633 1.394 . A
C632 C641 1.387 . A
C633 C638 1.378 . A
C633 H642 0.931 . S
C638 C639 1.394 . A
C638 H643 0.929 . S
C639 C640 1.401 . A
C639 N645 1.386 . S
C640 C641 1.375 . A
C640 H644 0.929 . S
C641 H646 0.932 . S
N645 H647 0.860 . S
C648 C649 1.394 . A
C648 C653 1.387 . A
C649 C650 1.378 . A
C649 H656 0.931 . S
C650 C651 1.394 . A
C650 H657 0.929 . S
C651 C652 1.401 . A
C651 N667 1.386 . S
C652 C653 1.375 . A
C652 H658 0.929 . S
C653 H659 0.932 . S
C654 C655 1.394 . A
C654 C663 1.387 . A
C655 C660 1.378 . A
C655 H664 0.931 . S
C660 C661 1.394 . A
C660 H665 0.929 . S
C661 C662 1.401 . A
C661 N667 1.386 . S
C662 C663 1.375 . A
C662 H666 0.929 . S
C663 H668 0.932 . S
N667 H669 0.860 . S
C670 C671 1.394 . A
C670 C675 1.387 . A
C671 C672 1.378 . A
C671 H678 0.931 . S
C672 C673 1.394 . A
C672 H679 0.929 . S
C673 C674 1.401 . A
C673 N689 1.386 . S
C674 C675 1.375 . A
C674 H680 0.929 . S
C675 H681 0.932 . S
C676 C677 1.394 . A
C676 C685 1.387 . A
C677 C682 1.378 . A
C677 H686 0.931 . S
C682 C683 1.394 . A
C682 H687 0.929 . S
C683 C684 1.401 . A
C683 N689 1.386 . S
C684 C685 1.375 . A
C684 H688 0.929 . S
C685 H690 0.932 . S
N689 H691 0.860 . S
C692 C693 1.394 . A
C692 C697 1.387 . A
C693 C694 1.378 . A
C693 H700 0.931 . S
C694 C695 1.394 . A
C694 H701 0.929 . S
C695 C696 1.401 . A
C695 N711 1.386 . S
C696 C697 1.375 . A
C696 H702 0.929 . S
C697 H703 0.932 . S
C698 C699 1.394 . A
C698 C707 1.387 . A
C699 C704 1.378 . A
C699 H708 0.931 . S
C704 C705 1.394 . A
C704 H709 0.929 . S
C705 C706 1.401 . A
C705 N711 1.386 . S
C706 C707 1.375 . A
C706 H710 0.929 . S
C707 H712 0.932 . S
N711 H713 0.860 . S
C714 C715 1.394 . A
C714 C719 1.387 . A
C715 C716 1.378 . A
C715 H722 0.931 . S
C716 C717 1.394 . A
C716 H723 0.929 . S
C717 C718 1.401 . A
C717 N733 1.386 . S
C718 C719 1.375 . A
C718 H724 0.929 . S
C719 H725 0.932 . S
C720 C721 1.394 . A
C720 C729 1.387 . A
C721 C726 1.378 . A
C721 H730 0.931 . S
C726 C727 1.394 . A
C726 H731 0.929 . S
C727 C728 1.401 . A
C727 N733 1.386 . S
C728 C729 1.375 . A
C728 H732 0.929 . S
C729 H734 0.932 . S
N733 H735 0.860 . S
C736 C737 1.394 . A
C736 C741 1.387 . A
C737 C738 1.378 . A
C737 H744 0.931 . S
C738 C739 1.394 . A
C738 H745 0.929 . S
C739 C740 1.401 . A
C739 N755 1.386 . S
C740 C741 1.375 . A
C740 H746 0.929 . S
C741 H747 0.932 . S
C742 C743 1.394 . A
C742 C751 1.387 . A
C743 C748 1.378 . A
C743 H752 0.931 . S
C748 C749 1.394 . A
C748 H753 0.929 . S
C749 C750 1.401 . A
C749 N755 1.386 . S
C750 C751 1.375 . A
C750 H754 0.929 . S
C751 H756 0.932 . S
N755 H757 0.860 . S
C758 C759 1.394 . A
C758 C763 1.387 . A
C759 C760 1.378 . A
C759 H766 0.931 . S
C760 C761 1.394 . A
C760 H767 0.929 . S
C761 C762 1.401 . A
C761 N777 1.386 . S
C762 C763 1.375 . A
C762 H768 0.929 . S
C763 H769 0.932 . S
C764 C765 1.394 . A
C764 C773 1.387 . A
C765 C770 1.378 . A
C765 H774 0.931 . S
C770 C771 1.394 . A
C770 H775 0.929 . S
C771 C772 1.401 . A
C771 N777 1.386 . S
C772 C773 1.375 . A
C772 H776 0.929 . S
C773 H778 0.932 . S
N777 H779 0.860 . S
C780 C781 1.394 . A
C780 C785 1.387 . A
C781 C782 1.378 . A
C781 H788 0.931 . S
C782 C783 1.394 . A
C782 H789 0.929 . S
C783 C784 1.401 . A
C783 N799 1.386 . S
C784 C785 1.375 . A
C784 H790 0.929 . S
C785 H791 0.932 . S
C786 C787 1.394 . A
C786 C795 1.387 . A
C787 C792 1.378 . A
C787 H796 0.931 . S
C792 C793 1.394 . A
C792 H797 0.929 . S
C793 C794 1.401 . A
C793 N799 1.386 . S
C794 C795 1.375 . A
C794 H798 0.929 . S
C795 H800 0.932 . S
N799 H801 0.860 . S
C802 C803 1.394 . A
C802 C807 1.387 . A
C803 C804 1.378 . A
C803 H810 0.931 . S
C804 C805 1.394 . A
C804 H811 0.929 . S
C805 C806 1.401 . A
C805 N821 1.386 . S
C806 C807 1.375 . A
C806 H812 0.929 . S
C807 H813 0.932 . S
C808 C809 1.394 . A
C808 C817 1.387 . A
C809 C814 1.378 . A
C809 H818 0.931 . S
C814 C815 1.394 . A
C814 H819 0.929 . S
C815 C816 1.401 . A
C815 N821 1.386 . S
C816 C817 1.375 . A
C816 H820 0.929 . S
C817 H822 0.932 . S
N821 H823 0.860 . S
C824 C825 1.394 . A
C824 C829 1.387 . A
C825 C826 1.378 . A
C825 H832 0.931 . S
C826 C827 1.394 . A
C826 H833 0.929 . S
C827 C828 1.401 . A
C827 N843 1.386 . S
C828 C829 1.375 . A
C828 H834 0.929 . S
C829 H835 0.932 . S
C830 C831 1.394 . A
C830 C839 1.387 . A
C831 C836 1.378 . A
C831 H840 0.931 . S
C836 C837 1.394 . A
C836 H841 0.929 . S
C837 C838 1.401 . A
C837 N843 1.386 . S
C838 C839 1.375 . A
C838 H842 0.929 . S
C839 H844 0.932 . S
N843 H845 0.860 . S
C846 C847 1.394 . A
C846 C851 1.387 . A
C847 C848 1.378 . A
C847 H854 0.931 . S
C848 C849 1.394 . A
C848 H855 0.929 . S
C849 C850 1.401 . A
C849 N865 1.386 . S
C850 C851 1.375 . A
C850 H856 0.929 . S
C851 H857 0.932 . S
C852 C853 1.394 . A
C852 C861 1.387 . A
C853 C858 1.378 . A
C853 H862 0.931 . S
C858 C859 1.394 . A
C858 H863 0.929 . S
C859 C860 1.401 . A
C859 N865 1.386 . S
C860 C861 1.375 . A
C860 H864 0.929 . S
C861 H866 0.932 . S
N865 H867 0.860 . S
C868 C869 1.394 . A
C868 C873 1.387 . A
C869 C870 1.378 . A
C869 H876 0.931 . S
C870 C871 1.394 . A
C870 H877 0.929 . S
C871 C872 1.401 . A
C871 N887 1.386 . S
C872 C873 1.375 . A
C872 H878 0.929 . S
C873 H879 0.932 . S
C874 C875 1.394 . A
C874 C883 1.387 . A
C875 C880 1.378 . A
C875 H884 0.931 . S
C880 C881 1.394 . A
C880 H885 0.929 . S
C881 C882 1.401 . A
C881 N887 1.386 1_565 S
C882 C883 1.375 . A
C882 H886 0.929 . S
C883 H888 0.932 . S
N887 H889 0.860 . S
C890 C891 1.394 . A
C890 C895 1.387 . A
C891 C892 1.378 . A
C891 H898 0.931 . S
C892 C893 1.394 . A
C892 H899 0.929 . S
C893 C894 1.401 . A
C893 N909 1.386 1_655 S
C894 C895 1.375 . A
C894 H900 0.929 . S
C895 H901 0.932 . S
C896 C897 1.394 . A
C896 C905 1.387 . A
C897 C902 1.378 . A
C897 H906 0.931 . S
C902 C903 1.394 . A
C902 H907 0.929 . S
C903 C904 1.401 . A
C903 N909 1.386 . S
C904 C905 1.375 . A
C904 H908 0.929 . S
C905 H910 0.932 . S
N909 H911 0.860 . S
C208 C190 1.153 . S
C214 C8 0.906 . S
C230 C203 1.153 . S
C236 C21 0.903 . S
C252 C34 1.153 . S
C258 C112 0.903 . S
C274 C47 1.180 . S
C280 C125 0.967 . S
C296 C138 1.165 . S
C302 C60 0.952 . S
C318 C73 1.154 . S
C324 C151 0.899 . S
C340 C164 1.173 . S
C346 C86 0.945 . S
C362 C99 1.169 . S
C368 C177 0.935 . S
C384 C12 1.691 . S
C390 C76 1.477 . S
C406 C57 1.723 . S
C412 C18 1.579 . S
C428 C38 1.685 . S
C434 C24 1.489 . S
C450 C31 1.673 . S
C456 C44 1.337 . S
C472 C64 1.594 . S
C478 C50 1.435 . S
C494 C70 1.736 . S
C500 C83 1.558 . S
C516 C89 1.719 . S
C522 C51 1.464 . S
C538 C25 1.683 . S
C544 C11 1.491 . S
C560 C77 1.683 . S
C566 C37 1.491 . S
C582 C103 1.687 . S
C588 C63 1.487 . S
C604 C154 1.719 . S
C610 C116 1.477 . S
C626 C128 1.698 . S
C632 C168 1.443 . S
C648 C142 1.684 . S
C654 C180 1.490 . S
C670 C148 1.737 . S
C676 C161 1.552 . S
C692 C167 1.718 . S
C698 C181 1.451 . S
C714 C174 1.732 . S
C720 C187 1.576 . S
C736 C155 1.653 . S
C742 C193 1.440 . S
C758 C200 1.663 . S
C764 C135 1.328 . S
C780 C207 1.679 . S
C786 C115 1.493 . S
C802 C122 1.651 . S
C808 C109 1.335 . S
C824 C141 1.717 . S
C830 C129 1.398 . S
C846 C194 1.689 . S
C852 C206 1.471 . S
C868 C102 1.697 . S
C874 C90 1.294 . S
C890 C5 1.679 . S
C896 C96 1.346 . S
