# Generated by pormake.
# Topology pcb, (4)-cn, num edge types: 1
# Building blocks:
#     Node 0, Type 0, BuildingBlock: N164, # of connection points: 4
#     Node 1, Type 0, BuildingBlock: N164, # of connection points: 4
#     Node 2, Type 0, BuildingBlock: N164, # of connection points: 4
#     Node 3, Type 0, BuildingBlock: N164, # of connection points: 4
#     Node 4, Type 0, BuildingBlock: N164, # of connection points: 4
#     Node 5, Type 0, BuildingBlock: N164, # of connection points: 4
#     Node 6, Type 0, BuildingBlock: N164, # of connection points: 4
#     Node 7, Type 0, BuildingBlock: N164, # of connection points: 4
#     Node 8, Type 0, BuildingBlock: N164, # of connection points: 4
#     Node 9, Type 0, BuildingBlock: N164, # of connection points: 4
#     Node 10, Type 0, BuildingBlock: N164, # of connection points: 4
#     Node 11, Type 0, BuildingBlock: N164, # of connection points: 4
#     Node 12, Type 0, BuildingBlock: N164, # of connection points: 4
#     Node 13, Type 0, BuildingBlock: N164, # of connection points: 4
#     Node 14, Type 0, BuildingBlock: N164, # of connection points: 4
#     Node 15, Type 0, BuildingBlock: N164, # of connection points: 4
#     Edge 16, Type (0, 0), BuildingBlock: E47, # of connection points: 2
#     Edge 17, Type (0, 0), BuildingBlock: E47, # of connection points: 2
#     Edge 18, Type (0, 0), BuildingBlock: E47, # of connection points: 2
#     Edge 19, Type (0, 0), BuildingBlock: E47, # of connection points: 2
#     Edge 20, Type (0, 0), BuildingBlock: E47, # of connection points: 2
#     Edge 21, Type (0, 0), BuildingBlock: E47, # of connection points: 2
#     Edge 22, Type (0, 0), BuildingBlock: E47, # of connection points: 2
#     Edge 23, Type (0, 0), BuildingBlock: E47, # of connection points: 2
#     Edge 24, Type (0, 0), BuildingBlock: E47, # of connection points: 2
#     Edge 25, Type (0, 0), BuildingBlock: E47, # of connection points: 2
#     Edge 26, Type (0, 0), BuildingBlock: E47, # of connection points: 2
#     Edge 27, Type (0, 0), BuildingBlock: E47, # of connection points: 2
#     Edge 28, Type (0, 0), BuildingBlock: E47, # of connection points: 2
#     Edge 29, Type (0, 0), BuildingBlock: E47, # of connection points: 2
#     Edge 30, Type (0, 0), BuildingBlock: E47, # of connection points: 2
#     Edge 31, Type (0, 0), BuildingBlock: E47, # of connection points: 2
#     Edge 32, Type (0, 0), BuildingBlock: E47, # of connection points: 2
#     Edge 33, Type (0, 0), BuildingBlock: E47, # of connection points: 2
#     Edge 34, Type (0, 0), BuildingBlock: E47, # of connection points: 2
#     Edge 35, Type (0, 0), BuildingBlock: E47, # of connection points: 2
#     Edge 36, Type (0, 0), BuildingBlock: E47, # of connection points: 2
#     Edge 37, Type (0, 0), BuildingBlock: E47, # of connection points: 2
#     Edge 38, Type (0, 0), BuildingBlock: E47, # of connection points: 2
#     Edge 39, Type (0, 0), BuildingBlock: E47, # of connection points: 2
#     Edge 40, Type (0, 0), BuildingBlock: E47, # of connection points: 2
#     Edge 41, Type (0, 0), BuildingBlock: E47, # of connection points: 2
#     Edge 42, Type (0, 0), BuildingBlock: E47, # of connection points: 2
#     Edge 43, Type (0, 0), BuildingBlock: E47, # of connection points: 2
#     Edge 44, Type (0, 0), BuildingBlock: E47, # of connection points: 2
#     Edge 45, Type (0, 0), BuildingBlock: E47, # of connection points: 2
#     Edge 46, Type (0, 0), BuildingBlock: E47, # of connection points: 2
#     Edge 47, Type (0, 0), BuildingBlock: E47, # of connection points: 2
# Relax obj value: 0.410
# Max RMSD: 0.228
# Mean RMSD: 0.228
data_pcb+N164+E47
_symmetry_space_group_name_H-M    P1
_symmetry_Int_Tables_number       1
_symmetry_cell_setting            triclinic
loop_
_symmetry_equiv_pos_as_xyz
'x, y, z'
_cell_length_a     42.267
_cell_length_b     59.497
_cell_length_c     59.497
_cell_angle_alpha  90.000
_cell_angle_beta   90.000
_cell_angle_gamma  90.000
loop_
_atom_site_label
_atom_site_type_symbol
_atom_site_fract_x
_atom_site_fract_y
_atom_site_fract_z
_atom_type_partial_charge
O0 O 0.78699 0.14403 0.79886 0.00000
O1 O 0.75231 0.16115 0.81971 0.00000
O2 O 0.76469 0.15245 0.86745 0.00000
O3 O 0.79768 0.12465 0.87041 0.00000
In4 In 0.78581 0.13626 0.83572 0.00000
C5 C 0.84358 0.15332 0.83753 0.00000
O6 O 0.78479 0.09961 0.82702 0.00000
O7 O 0.74073 0.11516 0.83778 0.00000
C8 C 0.76597 0.15857 0.80106 0.00000
O9 O 0.84211 0.13261 0.83254 0.00000
O10 O 0.81852 0.16443 0.83955 0.00000
C11 C 0.78042 0.13926 0.87925 0.00000
C12 C 0.75629 0.09799 0.83243 0.00000
O13 O 0.78698 0.20114 0.14403 0.00000
O14 O 0.75231 0.18028 0.16114 0.00000
O15 O 0.76469 0.13254 0.15245 0.00000
O16 O 0.79768 0.12959 0.12464 0.00000
In17 In 0.78580 0.16428 0.13626 0.00000
C18 C 0.84358 0.16247 0.15332 0.00000
O19 O 0.78479 0.17298 0.09960 0.00000
O20 O 0.74072 0.16222 0.11515 0.00000
C21 C 0.76596 0.19894 0.15856 0.00000
O22 O 0.84210 0.16746 0.13261 0.00000
O23 O 0.81852 0.16045 0.16443 0.00000
C24 C 0.78042 0.12075 0.13925 0.00000
C25 C 0.75629 0.16756 0.09798 0.00000
O26 O 0.78698 0.85597 0.20114 0.00000
O27 O 0.75231 0.83885 0.18028 0.00000
O28 O 0.76469 0.84755 0.13254 0.00000
O29 O 0.79767 0.87536 0.12959 0.00000
In30 In 0.78580 0.86374 0.16428 0.00000
C31 C 0.84358 0.84668 0.16247 0.00000
O32 O 0.78479 0.90040 0.17298 0.00000
O33 O 0.74072 0.88485 0.16221 0.00000
C34 C 0.76596 0.84144 0.19894 0.00000
O35 O 0.84210 0.86739 0.16746 0.00000
O36 O 0.81852 0.83557 0.16045 0.00000
C37 C 0.78042 0.86075 0.12075 0.00000
C38 C 0.75629 0.90202 0.16756 0.00000
O39 O 0.21302 0.79885 0.14403 0.00000
O40 O 0.24769 0.81971 0.16115 0.00000
O41 O 0.23531 0.86745 0.15245 0.00000
O42 O 0.20232 0.87041 0.12464 0.00000
In43 In 0.21420 0.83571 0.13626 0.00000
C44 C 0.15642 0.83752 0.15332 0.00000
O45 O 0.21521 0.82702 0.09961 0.00000
O46 O 0.25928 0.83778 0.11515 0.00000
C47 C 0.23403 0.80106 0.15857 0.00000
O48 O 0.15790 0.83253 0.13261 0.00000
O49 O 0.18148 0.83954 0.16443 0.00000
C50 C 0.21958 0.87925 0.13925 0.00000
C51 C 0.24371 0.83243 0.09798 0.00000
O52 O 0.21302 0.14404 0.20114 0.00000
O53 O 0.24769 0.16115 0.18028 0.00000
O54 O 0.23531 0.15245 0.13254 0.00000
O55 O 0.20232 0.12465 0.12959 0.00000
In56 In 0.21419 0.13627 0.16428 0.00000
C57 C 0.15642 0.15332 0.16247 0.00000
O58 O 0.21521 0.09961 0.17298 0.00000
O59 O 0.25927 0.11516 0.16221 0.00000
C60 C 0.23403 0.15857 0.19894 0.00000
O61 O 0.15789 0.13262 0.16746 0.00000
O62 O 0.18148 0.16444 0.16045 0.00000
C63 C 0.21958 0.13926 0.12075 0.00000
C64 C 0.24371 0.09799 0.16756 0.00000
O65 O 0.78698 0.79885 0.85597 0.00000
O66 O 0.75231 0.81971 0.83885 0.00000
O67 O 0.76469 0.86745 0.84755 0.00000
O68 O 0.79767 0.87040 0.87536 0.00000
In69 In 0.78580 0.83571 0.86374 0.00000
C70 C 0.84358 0.83752 0.84668 0.00000
O71 O 0.78479 0.82702 0.90039 0.00000
O72 O 0.74072 0.83778 0.88485 0.00000
C73 C 0.76596 0.80106 0.84143 0.00000
O74 O 0.84210 0.83253 0.86739 0.00000
O75 O 0.81852 0.83954 0.83557 0.00000
C76 C 0.78042 0.87924 0.86074 0.00000
C77 C 0.75628 0.83243 0.90202 0.00000
O78 O 0.21302 0.85597 0.79886 0.00000
O79 O 0.24769 0.83885 0.81972 0.00000
O80 O 0.23531 0.84755 0.86746 0.00000
O81 O 0.20232 0.87536 0.87041 0.00000
In82 In 0.21419 0.86374 0.83572 0.00000
C83 C 0.15642 0.84668 0.83753 0.00000
O84 O 0.21521 0.90040 0.82703 0.00000
O85 O 0.25927 0.88485 0.83779 0.00000
C86 C 0.23403 0.84143 0.80107 0.00000
O87 O 0.15789 0.86739 0.83254 0.00000
O88 O 0.18148 0.83557 0.83955 0.00000
C89 C 0.21958 0.86075 0.87925 0.00000
C90 C 0.24371 0.90202 0.83244 0.00000
O91 O 0.21302 0.20114 0.85597 0.00000
O92 O 0.24770 0.18028 0.83885 0.00000
O93 O 0.23532 0.13254 0.84755 0.00000
O94 O 0.20233 0.12959 0.87536 0.00000
In95 In 0.21420 0.16428 0.86374 0.00000
C96 C 0.15643 0.16247 0.84668 0.00000
O97 O 0.21521 0.17298 0.90040 0.00000
O98 O 0.25928 0.16221 0.88485 0.00000
C99 C 0.23404 0.19894 0.84143 0.00000
O100 O 0.15790 0.16746 0.86739 0.00000
O101 O 0.18148 0.16045 0.83557 0.00000
C102 C 0.21958 0.12075 0.86075 0.00000
C103 C 0.24372 0.16756 0.90202 0.00000
O104 O 0.71302 0.70115 0.35597 0.00000
O105 O 0.74769 0.68029 0.33885 0.00000
O106 O 0.73531 0.63255 0.34755 0.00000
O107 O 0.70232 0.62959 0.37536 0.00000
In108 In 0.71420 0.66429 0.36374 0.00000
C109 C 0.65642 0.66248 0.34668 0.00000
O110 O 0.71521 0.67298 0.40040 0.00000
O111 O 0.75928 0.66222 0.38485 0.00000
C112 C 0.73404 0.69894 0.34143 0.00000
O113 O 0.65790 0.66747 0.36739 0.00000
O114 O 0.68148 0.66046 0.33557 0.00000
C115 C 0.71958 0.62076 0.36075 0.00000
C116 C 0.74372 0.66757 0.40202 0.00000
O117 O 0.28698 0.64403 0.29886 0.00000
O118 O 0.25231 0.66115 0.31972 0.00000
O119 O 0.26469 0.65245 0.36746 0.00000
O120 O 0.29768 0.62464 0.37041 0.00000
In121 In 0.28580 0.63626 0.33572 0.00000
C122 C 0.34358 0.65332 0.33753 0.00000
O123 O 0.28479 0.59961 0.32703 0.00000
O124 O 0.24072 0.61515 0.33779 0.00000
C125 C 0.26596 0.65857 0.30106 0.00000
O126 O 0.34210 0.63261 0.33254 0.00000
O127 O 0.31852 0.66443 0.33955 0.00000
C128 C 0.28042 0.63926 0.37925 0.00000
C129 C 0.25629 0.59798 0.33244 0.00000
O130 O 0.28698 0.29886 0.35597 0.00000
O131 O 0.25230 0.31972 0.33885 0.00000
O132 O 0.26468 0.36746 0.34755 0.00000
O133 O 0.29767 0.37041 0.37536 0.00000
In134 In 0.28580 0.33572 0.36374 0.00000
C135 C 0.34357 0.33753 0.34668 0.00000
O136 O 0.28479 0.32702 0.40040 0.00000
O137 O 0.24072 0.33779 0.38485 0.00000
C138 C 0.26596 0.30106 0.34143 0.00000
O139 O 0.34210 0.33254 0.36739 0.00000
O140 O 0.31852 0.33955 0.33557 0.00000
C141 C 0.28042 0.37925 0.36075 0.00000
C142 C 0.25628 0.33244 0.40202 0.00000
O143 O 0.71302 0.64403 0.70114 0.00000
O144 O 0.74769 0.66115 0.68028 0.00000
O145 O 0.73531 0.65245 0.63254 0.00000
O146 O 0.70233 0.62464 0.62959 0.00000
In147 In 0.71420 0.63626 0.66428 0.00000
C148 C 0.65642 0.65332 0.66247 0.00000
O149 O 0.71521 0.59960 0.67298 0.00000
O150 O 0.75928 0.61515 0.66221 0.00000
C151 C 0.73404 0.65857 0.69894 0.00000
O152 O 0.65790 0.63261 0.66746 0.00000
O153 O 0.68148 0.66443 0.66045 0.00000
C154 C 0.71958 0.63925 0.62075 0.00000
C155 C 0.74372 0.59798 0.66756 0.00000
O156 O 0.28698 0.70114 0.64403 0.00000
O157 O 0.25231 0.68029 0.66115 0.00000
O158 O 0.26469 0.63255 0.65245 0.00000
O159 O 0.29768 0.62959 0.62464 0.00000
In160 In 0.28581 0.66429 0.63626 0.00000
C161 C 0.34358 0.66248 0.65332 0.00000
O162 O 0.28479 0.67298 0.59961 0.00000
O163 O 0.24073 0.66222 0.61515 0.00000
C164 C 0.26597 0.69894 0.65857 0.00000
O165 O 0.34211 0.66746 0.63261 0.00000
O166 O 0.31852 0.66046 0.66443 0.00000
C167 C 0.28042 0.62075 0.63925 0.00000
C168 C 0.25629 0.66757 0.59798 0.00000
O169 O 0.28699 0.35596 0.70114 0.00000
O170 O 0.25231 0.33885 0.68029 0.00000
O171 O 0.26469 0.34755 0.63255 0.00000
O172 O 0.29768 0.37535 0.62959 0.00000
In173 In 0.28581 0.36373 0.66428 0.00000
C174 C 0.34358 0.34668 0.66247 0.00000
O175 O 0.28479 0.40039 0.67298 0.00000
O176 O 0.24073 0.38484 0.66222 0.00000
C177 C 0.26597 0.34143 0.69894 0.00000
O178 O 0.34211 0.36738 0.66746 0.00000
O179 O 0.31852 0.33556 0.66045 0.00000
C180 C 0.28042 0.36074 0.62075 0.00000
C181 C 0.25629 0.40201 0.66757 0.00000
O182 O 0.71302 0.29886 0.64403 0.00000
O183 O 0.74770 0.31971 0.66114 0.00000
O184 O 0.73532 0.36745 0.65245 0.00000
O185 O 0.70233 0.37041 0.62464 0.00000
In186 In 0.71420 0.33571 0.63626 0.00000
C187 C 0.65643 0.33752 0.65331 0.00000
O188 O 0.71521 0.32702 0.59960 0.00000
O189 O 0.75928 0.33778 0.61515 0.00000
C190 C 0.73404 0.30106 0.65856 0.00000
O191 O 0.65790 0.33254 0.63261 0.00000
O192 O 0.68148 0.33954 0.66443 0.00000
C193 C 0.71958 0.37925 0.63925 0.00000
C194 C 0.74372 0.33243 0.59798 0.00000
O195 O 0.71301 0.35597 0.29886 0.00000
O196 O 0.74769 0.33885 0.31971 0.00000
O197 O 0.73531 0.34755 0.36745 0.00000
O198 O 0.70232 0.37535 0.37041 0.00000
In199 In 0.71419 0.36374 0.33572 0.00000
C200 C 0.65642 0.34668 0.33753 0.00000
O201 O 0.71520 0.40039 0.32702 0.00000
O202 O 0.75927 0.38485 0.33778 0.00000
C203 C 0.73403 0.34143 0.30106 0.00000
O204 O 0.65789 0.36739 0.33254 0.00000
O205 O 0.68147 0.33557 0.33955 0.00000
C206 C 0.71957 0.36074 0.37925 0.00000
C207 C 0.74371 0.40202 0.33244 0.00000
C208 C 0.70790 0.25291 0.68749 0.00000
C209 C 0.73621 0.24963 0.70345 0.00000
C210 C 0.76489 0.26553 0.70204 0.00000
C211 C 0.76525 0.28472 0.68467 0.00000
C212 C 0.73694 0.28800 0.66871 0.00000
C213 C 0.70827 0.27210 0.67012 0.00000
C214 C 0.79320 0.26225 0.71799 0.00000
C215 C 0.79283 0.24306 0.73537 0.00000
C216 C 0.76415 0.22716 0.73677 0.00000
C217 C 0.73584 0.23044 0.72082 0.00000
C218 C 0.70717 0.21454 0.72223 0.00000
C219 C 0.70681 0.19535 0.73960 0.00000
C220 C 0.73512 0.19206 0.75556 0.00000
C221 C 0.76379 0.20797 0.75414 0.00000
C222 C 0.79210 0.20469 0.77011 0.00000
C223 C 0.79174 0.18550 0.78747 0.00000
C224 C 0.76306 0.16960 0.78889 0.00000
C225 C 0.73475 0.17288 0.77293 0.00000
H226 H 0.68667 0.24114 0.68853 0.00000
H227 H 0.78648 0.29650 0.68362 0.00000
H228 H 0.68731 0.27453 0.65830 0.00000
H229 H 0.81442 0.27402 0.71695 0.00000
H230 H 0.81379 0.24064 0.74719 0.00000
H231 H 0.68621 0.21697 0.71042 0.00000
H232 H 0.68558 0.18357 0.74064 0.00000
H233 H 0.81333 0.21647 0.76907 0.00000
H234 H 0.81270 0.18307 0.79928 0.00000
H235 H 0.71352 0.16112 0.77399 0.00000
C236 C 0.77935 0.29890 0.27330 0.00000
C237 C 0.75499 0.29297 0.25499 0.00000
C238 C 0.72344 0.30585 0.25371 0.00000
C239 C 0.71625 0.32466 0.27074 0.00000
C240 C 0.74061 0.33059 0.28905 0.00000
C241 C 0.77216 0.31771 0.29033 0.00000
C242 C 0.69908 0.29992 0.23541 0.00000
C243 C 0.70627 0.28111 0.21837 0.00000
C244 C 0.73782 0.26823 0.21965 0.00000
C245 C 0.76219 0.27417 0.23796 0.00000
C246 C 0.79374 0.26128 0.23923 0.00000
C247 C 0.80092 0.24247 0.22220 0.00000
C248 C 0.77656 0.23654 0.20389 0.00000
C249 C 0.74500 0.24943 0.20261 0.00000
C250 C 0.72064 0.24350 0.18430 0.00000
C251 C 0.72782 0.22468 0.16727 0.00000
C252 C 0.75938 0.21181 0.16854 0.00000
C253 C 0.78375 0.21774 0.18685 0.00000
H254 H 0.80271 0.28937 0.27424 0.00000
H255 H 0.69290 0.33419 0.26980 0.00000
H256 H 0.79020 0.32209 0.30389 0.00000
H257 H 0.67572 0.30945 0.23446 0.00000
H258 H 0.68823 0.27673 0.20481 0.00000
H259 H 0.81178 0.26568 0.25278 0.00000
H260 H 0.82428 0.23294 0.22314 0.00000
H261 H 0.69728 0.25303 0.18336 0.00000
H262 H 0.70978 0.22029 0.15372 0.00000
H263 H 0.80711 0.20822 0.18779 0.00000
C264 C 0.74520 0.82524 0.25537 0.00000
C265 C 0.75146 0.79990 0.25255 0.00000
C266 C 0.76231 0.79058 0.22967 0.00000
C267 C 0.76691 0.80661 0.20960 0.00000
C268 C 0.76065 0.83195 0.21242 0.00000
C269 C 0.74979 0.84127 0.23530 0.00000
C270 C 0.76857 0.76524 0.22684 0.00000
C271 C 0.76399 0.74921 0.24691 0.00000
C272 C 0.75313 0.75854 0.26979 0.00000
C273 C 0.74687 0.78388 0.27261 0.00000
C274 C 0.73602 0.79319 0.29550 0.00000
C275 C 0.73142 0.77717 0.31556 0.00000
C276 C 0.73768 0.75183 0.31274 0.00000
C277 C 0.74854 0.74251 0.28985 0.00000
C278 C 0.75480 0.71717 0.28703 0.00000
C279 C 0.75020 0.70114 0.30709 0.00000
C280 C 0.73935 0.71046 0.32998 0.00000
C281 C 0.73310 0.73580 0.33280 0.00000
H282 H 0.73717 0.83214 0.27231 0.00000
H283 H 0.77495 0.79971 0.19266 0.00000
H284 H 0.74515 0.86003 0.23739 0.00000
H285 H 0.77661 0.75834 0.20990 0.00000
H286 H 0.76863 0.73046 0.24482 0.00000
H287 H 0.73139 0.81195 0.29759 0.00000
H288 H 0.72338 0.78406 0.33250 0.00000
H289 H 0.76284 0.71027 0.27009 0.00000
H290 H 0.75482 0.68238 0.30500 0.00000
H291 H 0.72508 0.74270 0.34974 0.00000
C292 C 0.23761 0.74321 0.17498 0.00000
C293 C 0.24402 0.74708 0.20016 0.00000
C294 C 0.24766 0.77115 0.20930 0.00000
C295 C 0.24488 0.79137 0.19325 0.00000
C296 C 0.23847 0.78750 0.16807 0.00000
C297 C 0.23483 0.76342 0.15893 0.00000
C298 C 0.25407 0.77502 0.23448 0.00000
C299 C 0.25684 0.75481 0.25053 0.00000
C300 C 0.25321 0.73073 0.24139 0.00000
C301 C 0.24679 0.72686 0.21621 0.00000
C302 C 0.24315 0.70278 0.20707 0.00000
C303 C 0.24593 0.68257 0.22312 0.00000
C304 C 0.25235 0.68644 0.24830 0.00000
C305 C 0.25598 0.71052 0.25744 0.00000
C306 C 0.26239 0.71439 0.28262 0.00000
C307 C 0.26518 0.69417 0.29867 0.00000
C308 C 0.26153 0.67010 0.28954 0.00000
C309 C 0.25511 0.66623 0.26435 0.00000
H310 H 0.23491 0.72539 0.16821 0.00000
H311 H 0.24757 0.80919 0.20002 0.00000
H312 H 0.23009 0.76056 0.14028 0.00000
H313 H 0.25676 0.79285 0.24124 0.00000
H314 H 0.26158 0.75768 0.26917 0.00000
H315 H 0.23840 0.69992 0.18843 0.00000
H316 H 0.24324 0.66475 0.21636 0.00000
H317 H 0.26508 0.73221 0.28939 0.00000
H318 H 0.26993 0.69704 0.31731 0.00000
H319 H 0.25240 0.64840 0.25759 0.00000
C320 C 0.22075 0.27342 0.29877 0.00000
C321 C 0.24503 0.25502 0.29294 0.00000
C322 C 0.27648 0.25364 0.30593 0.00000
C323 C 0.28366 0.27066 0.32475 0.00000
C324 C 0.25938 0.28906 0.33058 0.00000
C325 C 0.22793 0.29044 0.31759 0.00000
C326 C 0.30076 0.23525 0.30010 0.00000
C327 C 0.29358 0.21822 0.28127 0.00000
C328 C 0.26213 0.21961 0.26828 0.00000
C329 C 0.23785 0.23800 0.27412 0.00000
C330 C 0.20640 0.23938 0.26112 0.00000
C331 C 0.19923 0.22236 0.24230 0.00000
C332 C 0.22350 0.20396 0.23647 0.00000
C333 C 0.25496 0.20259 0.24946 0.00000
C334 C 0.27924 0.18419 0.24363 0.00000
C335 C 0.27207 0.16717 0.22480 0.00000
C336 C 0.24061 0.16854 0.21181 0.00000
C337 C 0.21633 0.18694 0.21765 0.00000
H338 H 0.19747 0.27444 0.28915 0.00000
H339 H 0.30694 0.26964 0.33437 0.00000
H340 H 0.20996 0.30407 0.32191 0.00000
H341 H 0.32405 0.23423 0.30971 0.00000
H342 H 0.31156 0.20460 0.27696 0.00000
H343 H 0.18842 0.25300 0.26544 0.00000
H344 H 0.17594 0.22338 0.23268 0.00000
H345 H 0.30252 0.18316 0.25325 0.00000
H346 H 0.29004 0.15356 0.22048 0.00000
H347 H 0.19304 0.18795 0.20804 0.00000
C348 C 0.71740 0.76208 0.81042 0.00000
C349 C 0.74415 0.75204 0.79600 0.00000
C350 C 0.77843 0.76021 0.79917 0.00000
C351 C 0.78596 0.77843 0.81676 0.00000
C352 C 0.75921 0.78847 0.83118 0.00000
C353 C 0.72493 0.78030 0.82801 0.00000
C354 C 0.80518 0.75017 0.78475 0.00000
C355 C 0.79765 0.73195 0.76716 0.00000
C356 C 0.76337 0.72378 0.76399 0.00000
C357 C 0.73662 0.73382 0.77841 0.00000
C358 C 0.70234 0.72564 0.77524 0.00000
C359 C 0.69481 0.70742 0.75765 0.00000
C360 C 0.72156 0.69738 0.74323 0.00000
C361 C 0.75584 0.70556 0.74640 0.00000
C362 C 0.78259 0.69552 0.73198 0.00000
C363 C 0.77506 0.67730 0.71438 0.00000
C364 C 0.74079 0.66912 0.71121 0.00000
C365 C 0.71404 0.67916 0.72564 0.00000
H366 H 0.69203 0.75603 0.80808 0.00000
H367 H 0.81134 0.78448 0.81911 0.00000
H368 H 0.70513 0.78774 0.83869 0.00000
H369 H 0.83056 0.75623 0.78709 0.00000
H370 H 0.81746 0.72451 0.75649 0.00000
H371 H 0.68254 0.73307 0.78592 0.00000
H372 H 0.66943 0.70137 0.75530 0.00000
H373 H 0.80797 0.70157 0.73432 0.00000
H374 H 0.79486 0.66988 0.70370 0.00000
H375 H 0.68866 0.67310 0.72330 0.00000
C376 C 0.29447 0.74405 0.69076 0.00000
C377 C 0.26441 0.74957 0.70431 0.00000
C378 C 0.23375 0.73623 0.70015 0.00000
C379 C 0.23313 0.71737 0.68243 0.00000
C380 C 0.26318 0.71184 0.66888 0.00000
C381 C 0.29385 0.72518 0.67304 0.00000
C382 C 0.20370 0.74176 0.71370 0.00000
C383 C 0.20431 0.76062 0.73142 0.00000
C384 C 0.23498 0.77397 0.73558 0.00000
C385 C 0.26503 0.76844 0.72203 0.00000
C386 C 0.29570 0.78178 0.72619 0.00000
C387 C 0.29631 0.80065 0.74391 0.00000
C388 C 0.26626 0.80617 0.75746 0.00000
C389 C 0.23559 0.79283 0.75329 0.00000
C390 C 0.20554 0.79835 0.76684 0.00000
C391 C 0.20615 0.81722 0.78456 0.00000
C392 C 0.23682 0.83056 0.78873 0.00000
C393 C 0.26687 0.82503 0.77518 0.00000
H394 H 0.31717 0.75392 0.69384 0.00000
H395 H 0.21043 0.70749 0.67935 0.00000
H396 H 0.31610 0.72110 0.66301 0.00000
H397 H 0.18099 0.73188 0.71061 0.00000
H398 H 0.18206 0.76471 0.74145 0.00000
H399 H 0.31795 0.77769 0.71616 0.00000
H400 H 0.31901 0.81053 0.74699 0.00000
H401 H 0.18283 0.78848 0.76377 0.00000
H402 H 0.18390 0.82132 0.79458 0.00000
H403 H 0.28958 0.83490 0.77827 0.00000
C404 C 0.28304 0.23496 0.80751 0.00000
C405 C 0.25597 0.24718 0.79524 0.00000
C406 C 0.22132 0.24149 0.80086 0.00000
C407 C 0.21374 0.22359 0.81876 0.00000
C408 C 0.24081 0.21137 0.83103 0.00000
C409 C 0.27546 0.21705 0.82541 0.00000
C410 C 0.19424 0.25371 0.78858 0.00000
C411 C 0.20182 0.27162 0.77068 0.00000
C412 C 0.23647 0.27730 0.76506 0.00000
C413 C 0.26355 0.26509 0.77734 0.00000
C414 C 0.29820 0.27078 0.77172 0.00000
C415 C 0.30577 0.28868 0.75382 0.00000
C416 C 0.27870 0.30090 0.74154 0.00000
C417 C 0.24404 0.29521 0.74717 0.00000
C418 C 0.21697 0.30743 0.73489 0.00000
C419 C 0.22454 0.32533 0.71699 0.00000
C420 C 0.25920 0.33102 0.71137 0.00000
C421 C 0.28627 0.31881 0.72365 0.00000
H422 H 0.30869 0.23917 0.80335 0.00000
H423 H 0.18809 0.21938 0.82292 0.00000
H424 H 0.29551 0.20800 0.83450 0.00000
H425 H 0.16859 0.24950 0.79274 0.00000
H426 H 0.18177 0.28067 0.76160 0.00000
H427 H 0.31824 0.26173 0.78081 0.00000
H428 H 0.33143 0.29289 0.74965 0.00000
H429 H 0.19132 0.30322 0.73905 0.00000
H430 H 0.20450 0.33437 0.70789 0.00000
H431 H 0.31192 0.32303 0.71949 0.00000
C432 C 0.79563 0.04054 0.83957 0.00000
C433 C 0.76906 0.02294 0.84158 0.00000
C434 C 0.73420 0.03031 0.84008 0.00000
C435 C 0.72591 0.05527 0.83657 0.00000
C436 C 0.75248 0.07286 0.83456 0.00000
C437 C 0.78734 0.06549 0.83606 0.00000
C438 C 0.70762 0.01272 0.84210 0.00000
C439 C 0.71591 0.98776 0.84560 0.00000
C440 C 0.75077 0.98039 0.84711 0.00000
C441 C 0.77735 0.99799 0.84509 0.00000
C442 C 0.81221 0.99062 0.84660 0.00000
C443 C 0.82050 0.96566 0.85011 0.00000
C444 C 0.79393 0.94806 0.85212 0.00000
C445 C 0.75906 0.95544 0.85062 0.00000
C446 C 0.73248 0.93784 0.85263 0.00000
C447 C 0.74077 0.91288 0.85615 0.00000
C448 C 0.77563 0.90551 0.85765 0.00000
C449 C 0.80221 0.92311 0.85563 0.00000
H450 H 0.82144 0.03508 0.84068 0.00000
H451 H 0.70010 0.06072 0.83546 0.00000
H452 H 0.80702 0.07852 0.83458 0.00000
H453 H 0.68181 0.01817 0.84099 0.00000
H454 H 0.69623 0.97473 0.84709 0.00000
H455 H 0.83189 0.00364 0.84510 0.00000
H456 H 0.84631 0.96020 0.85122 0.00000
H457 H 0.70667 0.94329 0.85152 0.00000
H458 H 0.72110 0.89986 0.85765 0.00000
H459 H 0.82802 0.91765 0.85673 0.00000
C460 C 0.06898 0.18576 0.15013 0.00000
C461 C 0.04711 0.16624 0.15703 0.00000
C462 C 0.06140 0.14382 0.16502 0.00000
C463 C 0.09757 0.14091 0.16612 0.00000
C464 C 0.11945 0.16043 0.15922 0.00000
C465 C 0.10515 0.18285 0.15123 0.00000
C466 C 0.03953 0.12430 0.17192 0.00000
C467 C 0.00336 0.12721 0.17083 0.00000
C468 C 0.98906 0.14963 0.16283 0.00000
C469 C 0.01094 0.16915 0.15593 0.00000
C470 C 0.99663 0.19157 0.14794 0.00000
C471 C 0.96046 0.19448 0.14684 0.00000
C472 C 0.93859 0.17496 0.15373 0.00000
C473 C 0.95290 0.15253 0.16173 0.00000
C474 C 0.93102 0.13302 0.16863 0.00000
C475 C 0.89485 0.13592 0.16753 0.00000
C476 C 0.88055 0.15834 0.15954 0.00000
C477 C 0.90242 0.17786 0.15264 0.00000
H478 H 0.05839 0.20236 0.14421 0.00000
H479 H 0.10816 0.12431 0.17205 0.00000
H480 H 0.12134 0.19730 0.14611 0.00000
H481 H 0.05012 0.10770 0.17784 0.00000
H482 H 0.98717 0.11276 0.17594 0.00000
H483 H 0.01282 0.20602 0.14283 0.00000
H484 H 0.94987 0.21108 0.14091 0.00000
H485 H 0.94160 0.11642 0.17456 0.00000
H486 H 0.87866 0.12147 0.17263 0.00000
H487 H 0.89183 0.19447 0.14674 0.00000
C488 C 0.79563 0.95945 0.16034 0.00000
C489 C 0.76905 0.97705 0.15839 0.00000
C490 C 0.73420 0.96970 0.15996 0.00000
C491 C 0.72591 0.94474 0.16349 0.00000
C492 C 0.75247 0.92714 0.16544 0.00000
C493 C 0.78734 0.93450 0.16386 0.00000
C494 C 0.70762 0.98730 0.15801 0.00000
C495 C 0.71591 0.01226 0.15450 0.00000
C496 C 0.75077 0.01961 0.15292 0.00000
C497 C 0.77735 0.00201 0.15487 0.00000
C498 C 0.81221 0.00937 0.15330 0.00000
C499 C 0.82050 0.03433 0.14977 0.00000
C500 C 0.79392 0.05193 0.14782 0.00000
C501 C 0.75906 0.04457 0.14940 0.00000
C502 C 0.73249 0.06217 0.14745 0.00000
C503 C 0.74077 0.08713 0.14392 0.00000
C504 C 0.77564 0.09449 0.14235 0.00000
C505 C 0.80221 0.07689 0.14431 0.00000
H506 H 0.82143 0.96490 0.15918 0.00000
H507 H 0.70010 0.93930 0.16465 0.00000
H508 H 0.80701 0.92146 0.16530 0.00000
H509 H 0.68182 0.98185 0.15918 0.00000
H510 H 0.69624 0.02529 0.15306 0.00000
H511 H 0.83188 0.99634 0.15474 0.00000
H512 H 0.84630 0.03977 0.14861 0.00000
H513 H 0.70668 0.05673 0.14862 0.00000
H514 H 0.72110 0.10016 0.14247 0.00000
H515 H 0.82802 0.08234 0.14315 0.00000
C516 C 0.93143 0.86100 0.17924 0.00000
C517 C 0.95300 0.84606 0.16468 0.00000
C518 C 0.93836 0.82907 0.14815 0.00000
C519 C 0.90214 0.82704 0.14617 0.00000
C520 C 0.88057 0.84198 0.16072 0.00000
C521 C 0.89522 0.85896 0.17726 0.00000
C522 C 0.95992 0.81413 0.13360 0.00000
C523 C 0.99614 0.81616 0.13557 0.00000
C524 C 0.01078 0.83314 0.15211 0.00000
C525 C 0.98921 0.84809 0.16666 0.00000
C526 C 0.00386 0.86507 0.18320 0.00000
C527 C 0.04008 0.86711 0.18518 0.00000
C528 C 0.06165 0.85216 0.17062 0.00000
C529 C 0.04699 0.83518 0.15409 0.00000
C530 C 0.06856 0.82023 0.13953 0.00000
C531 C 0.10478 0.82226 0.14152 0.00000
C532 C 0.11943 0.83925 0.15804 0.00000
C533 C 0.09786 0.85420 0.17260 0.00000
H534 H 0.94227 0.87357 0.19147 0.00000
H535 H 0.89130 0.81447 0.13393 0.00000
H536 H 0.87925 0.87003 0.18803 0.00000
H537 H 0.94908 0.80156 0.12136 0.00000
H538 H 0.01210 0.80510 0.12480 0.00000
H539 H 0.98790 0.87614 0.19397 0.00000
H540 H 0.05092 0.87967 0.19742 0.00000
H541 H 0.05773 0.80766 0.12729 0.00000
H542 H 0.12075 0.81119 0.13075 0.00000
H543 H 0.10871 0.86677 0.18482 0.00000
C544 C 0.28320 0.03406 0.16036 0.00000
C545 C 0.25167 0.02124 0.15840 0.00000
C546 C 0.22010 0.03406 0.15995 0.00000
C547 C 0.22005 0.05971 0.16347 0.00000
C548 C 0.25158 0.07253 0.16544 0.00000
C549 C 0.28315 0.05971 0.16388 0.00000
C550 C 0.18857 0.02124 0.15799 0.00000
C551 C 0.18861 0.99560 0.15447 0.00000
C552 C 0.22018 0.98278 0.15292 0.00000
C553 C 0.25172 0.99560 0.15488 0.00000
C554 C 0.28329 0.98277 0.15332 0.00000
C555 C 0.28333 0.95713 0.14980 0.00000
C556 C 0.25180 0.94431 0.14784 0.00000
C557 C 0.22022 0.95714 0.14940 0.00000
C558 C 0.18869 0.94432 0.14743 0.00000
C559 C 0.18873 0.91867 0.14392 0.00000
C560 C 0.22031 0.90585 0.14236 0.00000
C561 C 0.25184 0.91867 0.14431 0.00000
H562 H 0.30657 0.02457 0.15920 0.00000
H563 H 0.19668 0.06920 0.16462 0.00000
H564 H 0.30650 0.06920 0.16534 0.00000
H565 H 0.16519 0.03073 0.15915 0.00000
H566 H 0.16526 0.98611 0.15301 0.00000
H567 H 0.30663 0.99226 0.15477 0.00000
H568 H 0.30670 0.94764 0.14865 0.00000
H569 H 0.16532 0.95380 0.14858 0.00000
H570 H 0.16539 0.90918 0.14248 0.00000
H571 H 0.27521 0.90918 0.14315 0.00000
C572 C 0.93101 0.86672 0.83065 0.00000
C573 C 0.95289 0.84740 0.83807 0.00000
C574 C 0.93860 0.82520 0.84667 0.00000
C575 C 0.90243 0.82232 0.84784 0.00000
C576 C 0.88055 0.84164 0.84042 0.00000
C577 C 0.89485 0.86384 0.83182 0.00000
C578 C 0.96047 0.80588 0.85410 0.00000
C579 C 0.99664 0.80875 0.85293 0.00000
C580 C 0.01093 0.83096 0.84433 0.00000
C581 C 0.98906 0.85028 0.83690 0.00000
C582 C 0.00336 0.87248 0.82830 0.00000
C583 C 0.03953 0.87536 0.82713 0.00000
C584 C 0.06141 0.85604 0.83456 0.00000
C585 C 0.04710 0.83383 0.84316 0.00000
C586 C 0.06898 0.81451 0.85059 0.00000
C587 C 0.10515 0.81739 0.84942 0.00000
C588 C 0.11945 0.83959 0.84082 0.00000
C589 C 0.09757 0.85891 0.83338 0.00000
H590 H 0.94160 0.88315 0.82428 0.00000
H591 H 0.89184 0.80588 0.85421 0.00000
H592 H 0.87865 0.87815 0.82633 0.00000
H593 H 0.94989 0.78944 0.86047 0.00000
H594 H 0.01283 0.79445 0.85842 0.00000
H595 H 0.98717 0.88678 0.82280 0.00000
H596 H 0.05012 0.89179 0.82077 0.00000
H597 H 0.05840 0.79807 0.85695 0.00000
H598 H 0.12134 0.80309 0.85492 0.00000
H599 H 0.10816 0.87534 0.82701 0.00000
C600 C 0.25602 0.83335 0.93612 0.00000
C601 C 0.23792 0.84555 0.95498 0.00000
C602 C 0.21275 0.86330 0.94907 0.00000
C603 C 0.20568 0.86885 0.92429 0.00000
C604 C 0.22377 0.85665 0.90543 0.00000
C605 C 0.24894 0.83890 0.91134 0.00000
C606 C 0.19466 0.87551 0.96793 0.00000
C607 C 0.20173 0.86996 0.99271 0.00000
C608 C 0.22690 0.85220 0.99862 0.00000
C609 C 0.24499 0.83999 0.97976 0.00000
C610 C 0.27016 0.82224 0.98567 0.00000
C611 C 0.27724 0.81669 0.01045 0.00000
C612 C 0.25915 0.82890 0.02931 0.00000
C613 C 0.23397 0.84665 0.02339 0.00000
C614 C 0.21587 0.85886 0.04226 0.00000
C615 C 0.22295 0.85331 0.06704 0.00000
C616 C 0.24812 0.83555 0.07295 0.00000
C617 C 0.26621 0.82334 0.05409 0.00000
H618 H 0.27465 0.82020 0.94050 0.00000
H619 H 0.18704 0.88200 0.91991 0.00000
H620 H 0.26234 0.82987 0.89738 0.00000
H621 H 0.17603 0.88865 0.96355 0.00000
H622 H 0.18832 0.87899 0.00667 0.00000
H623 H 0.28356 0.81320 0.97171 0.00000
H624 H 0.29587 0.80355 0.01483 0.00000
H625 H 0.19724 0.87200 0.03788 0.00000
H626 H 0.20957 0.86235 0.08100 0.00000
H627 H 0.28483 0.81019 0.05847 0.00000
C628 C 0.79516 0.15667 0.04102 0.00000
C629 C 0.76893 0.15743 0.02307 0.00000
C630 C 0.73446 0.16210 0.03003 0.00000
C631 C 0.72622 0.16601 0.05493 0.00000
C632 C 0.75245 0.16525 0.07288 0.00000
C633 C 0.78692 0.16057 0.06592 0.00000
C634 C 0.70823 0.16286 0.01208 0.00000
C635 C 0.71647 0.15895 0.98717 0.00000
C636 C 0.75095 0.15428 0.98021 0.00000
C637 C 0.77718 0.15352 0.99816 0.00000
C638 C 0.81165 0.14885 0.99120 0.00000
C639 C 0.81989 0.14493 0.96629 0.00000
C640 C 0.79366 0.14569 0.94834 0.00000
C641 C 0.75918 0.15037 0.95531 0.00000
C642 C 0.73295 0.15113 0.93736 0.00000
C643 C 0.74119 0.14722 0.91245 0.00000
C644 C 0.77566 0.14255 0.90549 0.00000
C645 C 0.80189 0.14179 0.92344 0.00000
H646 H 0.82068 0.15321 0.03586 0.00000
H647 H 0.70071 0.16947 0.06008 0.00000
H648 H 0.80634 0.16000 0.07921 0.00000
H649 H 0.68272 0.16632 0.01723 0.00000
H650 H 0.69705 0.15952 0.97389 0.00000
H651 H 0.83107 0.14829 0.00448 0.00000
H652 H 0.84540 0.14147 0.96114 0.00000
H653 H 0.70743 0.15459 0.94251 0.00000
H654 H 0.72177 0.14777 0.89916 0.00000
H655 H 0.82741 0.13834 0.91828 0.00000
C656 C 0.79563 0.83948 0.95947 0.00000
C657 C 0.76905 0.84156 0.97706 0.00000
C658 C 0.73419 0.84013 0.96969 0.00000
C659 C 0.72590 0.83662 0.94473 0.00000
C660 C 0.75247 0.83455 0.92714 0.00000
C661 C 0.78734 0.83598 0.93452 0.00000
C662 C 0.70762 0.84221 0.98727 0.00000
C663 C 0.71590 0.84571 0.01223 0.00000
C664 C 0.75077 0.84714 0.01960 0.00000
C665 C 0.77735 0.84506 0.00202 0.00000
C666 C 0.81221 0.84649 0.00940 0.00000
C667 C 0.82050 0.85000 0.03436 0.00000
C668 C 0.79393 0.85208 0.05194 0.00000
C669 C 0.75906 0.85064 0.04456 0.00000
C670 C 0.73248 0.85272 0.06215 0.00000
C671 C 0.74077 0.85623 0.08711 0.00000
C672 C 0.77563 0.85765 0.09448 0.00000
C673 C 0.80221 0.85557 0.07690 0.00000
H674 H 0.82144 0.84054 0.96493 0.00000
H675 H 0.70009 0.83556 0.93927 0.00000
H676 H 0.80701 0.83445 0.92150 0.00000
H677 H 0.68181 0.84115 0.98181 0.00000
H678 H 0.69623 0.84724 0.02525 0.00000
H679 H 0.83189 0.84495 0.99638 0.00000
H680 H 0.84631 0.85106 0.03982 0.00000
H681 H 0.70667 0.85166 0.05669 0.00000
H682 H 0.72109 0.85777 0.10012 0.00000
H683 H 0.82802 0.85662 0.08236 0.00000
C684 C 0.28055 0.15006 0.96430 0.00000
C685 C 0.25097 0.15569 0.97832 0.00000
C686 C 0.22164 0.16593 0.96689 0.00000
C687 C 0.22188 0.17053 0.94142 0.00000
C688 C 0.25145 0.16491 0.92739 0.00000
C689 C 0.28078 0.15467 0.93883 0.00000
C690 C 0.19207 0.17156 0.98092 0.00000
C691 C 0.19183 0.16695 0.00639 0.00000
C692 C 0.22117 0.15671 0.01783 0.00000
C693 C 0.25074 0.15108 0.00379 0.00000
C694 C 0.28007 0.14084 0.01524 0.00000
C695 C 0.27983 0.13624 0.04071 0.00000
C696 C 0.25026 0.14187 0.05474 0.00000
C697 C 0.22092 0.15211 0.04329 0.00000
C698 C 0.19135 0.15773 0.05733 0.00000
C699 C 0.19111 0.15313 0.08280 0.00000
C700 C 0.22044 0.14289 0.09424 0.00000
C701 C 0.25002 0.13726 0.08020 0.00000
H702 H 0.30226 0.14248 0.97276 0.00000
H703 H 0.20016 0.17811 0.93295 0.00000
H704 H 0.30268 0.15051 0.92844 0.00000
H705 H 0.17035 0.17914 0.97245 0.00000
H706 H 0.16993 0.17111 0.01677 0.00000
H707 H 0.30196 0.13667 0.00485 0.00000
H708 H 0.30155 0.12866 0.04918 0.00000
H709 H 0.16963 0.16531 0.04886 0.00000
H710 H 0.16922 0.15731 0.09319 0.00000
H711 H 0.27172 0.12967 0.08867 0.00000
C712 C 0.76741 0.64895 0.56237 0.00000
C713 C 0.74092 0.64980 0.54462 0.00000
C714 C 0.70615 0.64696 0.55181 0.00000
C715 C 0.69787 0.64329 0.57675 0.00000
C716 C 0.72436 0.64244 0.59450 0.00000
C717 C 0.75913 0.64526 0.58731 0.00000
C718 C 0.67965 0.64781 0.53407 0.00000
C719 C 0.68793 0.65150 0.50913 0.00000
C720 C 0.72270 0.65432 0.50194 0.00000
C721 C 0.74920 0.65348 0.51969 0.00000
C722 C 0.78397 0.65631 0.51250 0.00000
C723 C 0.79225 0.65998 0.48756 0.00000
C724 C 0.76575 0.66083 0.46981 0.00000
C725 C 0.73098 0.65800 0.47701 0.00000
C726 C 0.70448 0.65885 0.45926 0.00000
C727 C 0.71276 0.66253 0.43432 0.00000
C728 C 0.74753 0.66536 0.42713 0.00000
C729 C 0.77403 0.66452 0.44488 0.00000
H730 H 0.79315 0.65104 0.55705 0.00000
H731 H 0.67213 0.64119 0.58207 0.00000
H732 H 0.77875 0.64463 0.60044 0.00000
H733 H 0.65391 0.64572 0.53939 0.00000
H734 H 0.66831 0.65213 0.49599 0.00000
H735 H 0.80358 0.65568 0.52563 0.00000
H736 H 0.81799 0.66208 0.48223 0.00000
H737 H 0.67874 0.65676 0.46458 0.00000
H738 H 0.69315 0.66315 0.42118 0.00000
H739 H 0.79977 0.66663 0.43955 0.00000
C740 C 0.31131 0.64819 0.44421 0.00000
C741 C 0.27978 0.64959 0.45711 0.00000
C742 C 0.24821 0.64741 0.44438 0.00000
C743 C 0.24817 0.64380 0.41875 0.00000
C744 C 0.27969 0.64240 0.40584 0.00000
C745 C 0.31126 0.64459 0.41858 0.00000
C746 C 0.21669 0.64881 0.45727 0.00000
C747 C 0.21673 0.65241 0.48291 0.00000
C748 C 0.24830 0.65461 0.49564 0.00000
C749 C 0.27983 0.65319 0.48274 0.00000
C750 C 0.31139 0.65538 0.49548 0.00000
C751 C 0.31143 0.65899 0.52111 0.00000
C752 C 0.27991 0.66040 0.53401 0.00000
C753 C 0.24834 0.65820 0.52127 0.00000
C754 C 0.21681 0.65961 0.53417 0.00000
C755 C 0.21685 0.66322 0.55980 0.00000
C756 C 0.24842 0.66540 0.57253 0.00000
C757 C 0.27995 0.66399 0.55964 0.00000
H758 H 0.33468 0.64981 0.45364 0.00000
H759 H 0.22480 0.64218 0.40932 0.00000
H760 H 0.33460 0.64355 0.40903 0.00000
H761 H 0.19332 0.64719 0.44784 0.00000
H762 H 0.19338 0.65345 0.49245 0.00000
H763 H 0.33473 0.65434 0.48593 0.00000
H764 H 0.33480 0.66061 0.53054 0.00000
H765 H 0.19344 0.65799 0.52474 0.00000
H766 H 0.19351 0.66427 0.56934 0.00000
H767 H 0.30331 0.66560 0.56907 0.00000
C768 C 0.29562 0.33978 0.45944 0.00000
C769 C 0.26905 0.34164 0.47705 0.00000
C770 C 0.23420 0.33996 0.46971 0.00000
C771 C 0.22591 0.33643 0.44476 0.00000
C772 C 0.25247 0.33457 0.42714 0.00000
C773 C 0.28733 0.33625 0.43448 0.00000
C774 C 0.20763 0.34182 0.48732 0.00000
C775 C 0.21592 0.34535 0.51228 0.00000
C776 C 0.25078 0.34703 0.51962 0.00000
C777 C 0.27735 0.34517 0.50200 0.00000
C778 C 0.31220 0.34685 0.50935 0.00000
C779 C 0.32049 0.35038 0.53431 0.00000
C780 C 0.29392 0.35224 0.55192 0.00000
C781 C 0.25906 0.35057 0.54457 0.00000
C782 C 0.23249 0.35242 0.56219 0.00000
C783 C 0.24078 0.35596 0.58715 0.00000
C784 C 0.27564 0.35763 0.59449 0.00000
C785 C 0.30221 0.35577 0.57687 0.00000
H786 H 0.32142 0.34102 0.46487 0.00000
H787 H 0.20010 0.33518 0.43932 0.00000
H788 H 0.30700 0.33488 0.42144 0.00000
H789 H 0.18182 0.34058 0.48189 0.00000
H790 H 0.19624 0.34672 0.52532 0.00000
H791 H 0.33187 0.34547 0.49631 0.00000
H792 H 0.34629 0.35163 0.53974 0.00000
H793 H 0.20668 0.35118 0.55676 0.00000
H794 H 0.22111 0.35735 0.60018 0.00000
H795 H 0.32801 0.35700 0.58231 0.00000
C796 C 0.56887 0.68502 0.67088 0.00000
C797 C 0.54708 0.66604 0.66249 0.00000
C798 C 0.56147 0.64424 0.65299 0.00000
C799 C 0.59766 0.64141 0.65190 0.00000
C800 C 0.61945 0.66039 0.66029 0.00000
C801 C 0.60505 0.68219 0.66978 0.00000
C802 C 0.53969 0.62527 0.64460 0.00000
C803 C 0.50350 0.62810 0.64570 0.00000
C804 C 0.48911 0.64990 0.65519 0.00000
C805 C 0.51090 0.66887 0.66359 0.00000
C806 C 0.49650 0.69067 0.67307 0.00000
C807 C 0.46031 0.69350 0.67417 0.00000
C808 C 0.43853 0.67453 0.66577 0.00000
C809 C 0.45293 0.65273 0.65628 0.00000
C810 C 0.43114 0.63375 0.64789 0.00000
C811 C 0.39495 0.63658 0.64898 0.00000
C812 C 0.38056 0.65838 0.65847 0.00000
C813 C 0.40235 0.67735 0.66687 0.00000
H814 H 0.55821 0.70115 0.67791 0.00000
H815 H 0.60831 0.62528 0.64488 0.00000
H816 H 0.62118 0.69624 0.67599 0.00000
H817 H 0.55035 0.60914 0.63757 0.00000
H818 H 0.48738 0.61405 0.63949 0.00000
H819 H 0.51262 0.70472 0.67929 0.00000
H820 H 0.44965 0.70964 0.68119 0.00000
H821 H 0.44179 0.61761 0.64086 0.00000
H822 H 0.37883 0.62254 0.64276 0.00000
H823 H 0.39168 0.69349 0.67391 0.00000
C824 C 0.31131 0.55578 0.64807 0.00000
C825 C 0.27978 0.54289 0.64956 0.00000
C826 C 0.24821 0.55563 0.64747 0.00000
C827 C 0.24817 0.58127 0.64388 0.00000
C828 C 0.27969 0.59416 0.64239 0.00000
C829 C 0.31127 0.58141 0.64449 0.00000
C830 C 0.21668 0.54275 0.64896 0.00000
C831 C 0.21673 0.51711 0.65255 0.00000
C832 C 0.24830 0.50437 0.65465 0.00000
C833 C 0.27983 0.51726 0.65315 0.00000
C834 C 0.31140 0.50451 0.65525 0.00000
C835 C 0.31144 0.47887 0.65884 0.00000
C836 C 0.27991 0.46599 0.66033 0.00000
C837 C 0.24834 0.47874 0.65823 0.00000
C838 C 0.21681 0.46585 0.65972 0.00000
C839 C 0.21685 0.44022 0.66332 0.00000
C840 C 0.24842 0.42747 0.66541 0.00000
C841 C 0.27995 0.44035 0.66391 0.00000
H842 H 0.33468 0.54634 0.64962 0.00000
H843 H 0.22480 0.59070 0.64233 0.00000
H844 H 0.33461 0.59095 0.64339 0.00000
H845 H 0.19331 0.55219 0.64741 0.00000
H846 H 0.19338 0.50758 0.65364 0.00000
H847 H 0.33474 0.51404 0.65414 0.00000
H848 H 0.33481 0.46943 0.66039 0.00000
H849 H 0.19343 0.47528 0.65817 0.00000
H850 H 0.19351 0.43068 0.66443 0.00000
H851 H 0.30332 0.43091 0.66545 0.00000
C852 C 0.43107 0.31263 0.66063 0.00000
C853 C 0.45290 0.33334 0.65979 0.00000
C854 C 0.43857 0.35711 0.65894 0.00000
C855 C 0.40240 0.36019 0.65893 0.00000
C856 C 0.38055 0.33949 0.65977 0.00000
C857 C 0.39490 0.31571 0.66061 0.00000
C858 C 0.46040 0.37782 0.65810 0.00000
C859 C 0.49658 0.37474 0.65812 0.00000
C860 C 0.51092 0.35096 0.65896 0.00000
C861 C 0.48908 0.33026 0.65980 0.00000
C862 C 0.50343 0.30648 0.66065 0.00000
C863 C 0.53961 0.30340 0.66066 0.00000
C864 C 0.56144 0.32411 0.65982 0.00000
C865 C 0.54709 0.34789 0.65897 0.00000
C866 C 0.56893 0.36859 0.65814 0.00000
C867 C 0.60511 0.36552 0.65814 0.00000
C868 C 0.61945 0.34174 0.65900 0.00000
C869 C 0.59761 0.32103 0.65984 0.00000
H870 H 0.44169 0.29503 0.66126 0.00000
H871 H 0.39178 0.37779 0.65830 0.00000
H872 H 0.37873 0.30038 0.66123 0.00000
H873 H 0.44979 0.39542 0.65747 0.00000
H874 H 0.51274 0.39007 0.65750 0.00000
H875 H 0.48726 0.29115 0.66128 0.00000
H876 H 0.55022 0.28580 0.66129 0.00000
H877 H 0.55832 0.38620 0.65751 0.00000
H878 H 0.62127 0.38084 0.65752 0.00000
H879 H 0.60823 0.30343 0.66048 0.00000
C880 C 0.77526 0.53706 0.64339 0.00000
C881 C 0.74958 0.52203 0.65393 0.00000
C882 C 0.72470 0.53232 0.66979 0.00000
C883 C 0.72550 0.55765 0.67510 0.00000
C884 C 0.75117 0.57268 0.66456 0.00000
C885 C 0.77606 0.56239 0.64870 0.00000
C886 C 0.69902 0.51729 0.68034 0.00000
C887 C 0.69822 0.49196 0.67502 0.00000
C888 C 0.72311 0.48167 0.65917 0.00000
C889 C 0.74879 0.49671 0.64862 0.00000
C890 C 0.77367 0.48641 0.63276 0.00000
C891 C 0.77288 0.46108 0.62745 0.00000
C892 C 0.74720 0.44605 0.63799 0.00000
C893 C 0.72231 0.45635 0.65385 0.00000
C894 C 0.69663 0.44131 0.66440 0.00000
C895 C 0.69584 0.41599 0.65909 0.00000
C896 C 0.72072 0.40569 0.64323 0.00000
C897 C 0.74639 0.42073 0.63268 0.00000
H898 H 0.79368 0.52944 0.63165 0.00000
H899 H 0.70707 0.56527 0.68684 0.00000
H900 H 0.79507 0.57352 0.64090 0.00000
H901 H 0.68061 0.52491 0.69208 0.00000
H902 H 0.67921 0.48084 0.68283 0.00000
H903 H 0.79268 0.49754 0.62495 0.00000
H904 H 0.79130 0.45346 0.61571 0.00000
H905 H 0.67821 0.44893 0.67614 0.00000
H906 H 0.67684 0.40486 0.66690 0.00000
H907 H 0.76480 0.41310 0.62093 0.00000
C908 C 0.56863 0.34121 0.31224 0.00000
C909 C 0.54701 0.34085 0.33308 0.00000
C910 C 0.56160 0.34055 0.35679 0.00000
C911 C 0.59781 0.34061 0.35967 0.00000
C912 C 0.61943 0.34096 0.33884 0.00000
C913 C 0.60483 0.34126 0.31512 0.00000
C914 C 0.53999 0.34019 0.37762 0.00000
C915 C 0.50378 0.34014 0.37475 0.00000
C916 C 0.48919 0.34043 0.35103 0.00000
C917 C 0.51081 0.34080 0.33019 0.00000
C918 C 0.49621 0.34110 0.30648 0.00000
C919 C 0.45999 0.34104 0.30360 0.00000
C920 C 0.43838 0.34068 0.32444 0.00000
C921 C 0.45298 0.34038 0.34815 0.00000
C922 C 0.43137 0.34002 0.36899 0.00000
C923 C 0.39516 0.33996 0.36611 0.00000
C924 C 0.38056 0.34027 0.34240 0.00000
C925 C 0.40218 0.34063 0.32156 0.00000
H926 H 0.55782 0.34143 0.29469 0.00000
H927 H 0.60861 0.34039 0.37722 0.00000
H928 H 0.62083 0.34152 0.29970 0.00000
H929 H 0.55080 0.33997 0.39518 0.00000
H930 H 0.48778 0.33988 0.39017 0.00000
H931 H 0.51220 0.34137 0.29106 0.00000
H932 H 0.44919 0.34126 0.28605 0.00000
H933 H 0.44217 0.33980 0.38654 0.00000
H934 H 0.37916 0.33969 0.38153 0.00000
H935 H 0.39137 0.34087 0.30401 0.00000
C936 C 0.78240 0.46661 0.33429 0.00000
C937 C 0.75146 0.47893 0.34020 0.00000
C938 C 0.72056 0.46555 0.34315 0.00000
C939 C 0.72060 0.43983 0.34020 0.00000
C940 C 0.75154 0.42751 0.33429 0.00000
C941 C 0.78244 0.44090 0.33133 0.00000
C942 C 0.68961 0.47787 0.34905 0.00000
C943 C 0.68957 0.50359 0.35201 0.00000
C944 C 0.72048 0.51698 0.34905 0.00000
C945 C 0.75142 0.50465 0.34315 0.00000
C946 C 0.78232 0.51804 0.34020 0.00000
C947 C 0.78228 0.54376 0.34315 0.00000
C948 C 0.75133 0.55608 0.34905 0.00000
C949 C 0.72043 0.54269 0.35201 0.00000
C950 C 0.68949 0.55501 0.35792 0.00000
C951 C 0.68944 0.58073 0.36087 0.00000
C952 C 0.72035 0.59412 0.35792 0.00000
C953 C 0.75129 0.58179 0.35202 0.00000
H954 H 0.80527 0.47652 0.33210 0.00000
H955 H 0.69772 0.42992 0.34238 0.00000
H956 H 0.80534 0.43177 0.32696 0.00000
H957 H 0.66674 0.46796 0.35124 0.00000
H958 H 0.66667 0.51271 0.35639 0.00000
H959 H 0.80523 0.50892 0.33583 0.00000
H960 H 0.80515 0.55367 0.34096 0.00000
H961 H 0.66661 0.54510 0.36010 0.00000
H962 H 0.66654 0.58985 0.36523 0.00000
H963 H 0.77417 0.59171 0.34984 0.00000
C964 C 0.43101 0.66986 0.36652 0.00000
C965 C 0.45289 0.66206 0.34735 0.00000
C966 C 0.43860 0.65303 0.32532 0.00000
C967 C 0.40243 0.65181 0.32246 0.00000
C968 C 0.38055 0.65961 0.34163 0.00000
C969 C 0.39485 0.66863 0.36366 0.00000
C970 C 0.46047 0.64523 0.30615 0.00000
C971 C 0.49664 0.64646 0.30900 0.00000
C972 C 0.51094 0.65549 0.33104 0.00000
C973 C 0.48906 0.66329 0.35021 0.00000
C974 C 0.50336 0.67232 0.37224 0.00000
C975 C 0.53953 0.67354 0.37509 0.00000
C976 C 0.56141 0.66574 0.35592 0.00000
C977 C 0.54710 0.65671 0.33389 0.00000
C978 C 0.56898 0.64891 0.31471 0.00000
C979 C 0.60515 0.65013 0.31757 0.00000
C980 C 0.61945 0.65917 0.33960 0.00000
C981 C 0.59757 0.66697 0.35877 0.00000
H982 H 0.44160 0.67654 0.38283 0.00000
H983 H 0.39185 0.64513 0.30615 0.00000
H984 H 0.37865 0.67440 0.37786 0.00000
H985 H 0.44989 0.63855 0.28984 0.00000
H986 H 0.51283 0.64069 0.29480 0.00000
H987 H 0.48717 0.67809 0.38643 0.00000
H988 H 0.55012 0.68022 0.39140 0.00000
H989 H 0.55840 0.64223 0.29840 0.00000
H990 H 0.62135 0.64435 0.30338 0.00000
H991 H 0.60816 0.67366 0.37508 0.00000
C992 C 0.23247 0.43797 0.35360 0.00000
C993 C 0.25905 0.45547 0.35087 0.00000
C994 C 0.29392 0.44799 0.35157 0.00000
C995 C 0.30221 0.42302 0.35498 0.00000
C996 C 0.27563 0.40552 0.35770 0.00000
C997 C 0.24076 0.41300 0.35701 0.00000
C998 C 0.32049 0.46548 0.34885 0.00000
C999 C 0.31221 0.49046 0.34544 0.00000
C1000 C 0.27734 0.49794 0.34475 0.00000
C1001 C 0.25076 0.48044 0.34746 0.00000
C1002 C 0.21589 0.48792 0.34677 0.00000
C1003 C 0.20760 0.51290 0.34336 0.00000
C1004 C 0.23418 0.53039 0.34065 0.00000
C1005 C 0.26905 0.52291 0.34134 0.00000
C1006 C 0.29563 0.54040 0.33862 0.00000
C1007 C 0.28734 0.56538 0.33521 0.00000
C1008 C 0.25248 0.57286 0.33451 0.00000
C1009 C 0.22590 0.55536 0.33723 0.00000
H1010 H 0.20666 0.44351 0.35308 0.00000
H1011 H 0.32802 0.41748 0.35549 0.00000
H1012 H 0.22109 0.40005 0.35903 0.00000
H1013 H 0.34630 0.45995 0.34936 0.00000
H1014 H 0.33188 0.50341 0.34342 0.00000
H1015 H 0.19622 0.47497 0.34878 0.00000
H1016 H 0.18179 0.51843 0.34285 0.00000
H1017 H 0.32144 0.53487 0.33913 0.00000
H1018 H 0.30702 0.57833 0.33320 0.00000
H1019 H 0.20009 0.56090 0.33670 0.00000
C1020 C 0.78268 0.34443 0.53476 0.00000
C1021 C 0.75153 0.34286 0.52143 0.00000
C1022 C 0.72040 0.33726 0.53365 0.00000
C1023 C 0.72041 0.33324 0.55922 0.00000
C1024 C 0.75156 0.33481 0.57256 0.00000
C1025 C 0.78269 0.34040 0.56033 0.00000
C1026 C 0.68926 0.33569 0.52031 0.00000
C1027 C 0.68924 0.33972 0.49474 0.00000
C1028 C 0.72038 0.34531 0.48252 0.00000
C1029 C 0.75152 0.34689 0.49586 0.00000
C1030 C 0.78265 0.35248 0.48363 0.00000
C1031 C 0.78264 0.35651 0.45806 0.00000
C1032 C 0.75149 0.35493 0.44472 0.00000
C1033 C 0.72036 0.34934 0.45695 0.00000
C1034 C 0.68921 0.34777 0.44361 0.00000
C1035 C 0.68920 0.35179 0.41804 0.00000
C1036 C 0.72033 0.35739 0.40581 0.00000
C1037 C 0.75147 0.35897 0.41915 0.00000
H1038 H 0.80572 0.34857 0.52571 0.00000
H1039 H 0.69737 0.32910 0.56827 0.00000
H1040 H 0.80575 0.34156 0.57021 0.00000
H1041 H 0.66621 0.33155 0.52936 0.00000
H1042 H 0.66618 0.33857 0.48487 0.00000
H1043 H 0.80571 0.35365 0.49350 0.00000
H1044 H 0.80568 0.36065 0.44900 0.00000
H1045 H 0.66617 0.34363 0.45266 0.00000
H1046 H 0.66615 0.35062 0.40816 0.00000
H1047 H 0.77452 0.36312 0.41010 0.00000
C1048 C 0.26749 0.06225 0.85199 0.00000
C1049 C 0.24094 0.04459 0.85045 0.00000
C1050 C 0.20610 0.05188 0.85250 0.00000
C1051 C 0.19782 0.07683 0.85608 0.00000
C1052 C 0.22437 0.09449 0.85762 0.00000
C1053 C 0.25920 0.08720 0.85557 0.00000
C1054 C 0.17955 0.03423 0.85097 0.00000
C1055 C 0.18783 0.00927 0.84738 0.00000
C1056 C 0.22267 0.00198 0.84534 0.00000
C1057 C 0.24923 0.01964 0.84687 0.00000
C1058 C 0.28407 0.01235 0.84482 0.00000
C1059 C 0.29235 0.98739 0.84125 0.00000
C1060 C 0.26580 0.96974 0.83971 0.00000
C1061 C 0.23096 0.97704 0.84176 0.00000
C1062 C 0.20440 0.95938 0.84022 0.00000
C1063 C 0.21269 0.93443 0.83665 0.00000
C1064 C 0.24753 0.92713 0.83460 0.00000
C1065 C 0.27408 0.94479 0.83613 0.00000
H1066 H 0.29328 0.05685 0.85047 0.00000
H1067 H 0.17202 0.08223 0.85759 0.00000
H1068 H 0.27886 0.10027 0.85671 0.00000
H1069 H 0.15376 0.03962 0.85249 0.00000
H1070 H 0.16817 0.99621 0.84624 0.00000
H1071 H 0.30372 0.02542 0.84595 0.00000
H1072 H 0.31814 0.98200 0.83973 0.00000
H1073 H 0.17861 0.96477 0.84174 0.00000
H1074 H 0.19303 0.92135 0.83552 0.00000
H1075 H 0.29987 0.93939 0.83460 0.00000
C1076 C 0.93131 0.16815 0.81370 0.00000
C1077 C 0.95297 0.16161 0.83346 0.00000
C1078 C 0.93843 0.15403 0.85595 0.00000
C1079 C 0.90223 0.15298 0.85867 0.00000
C1080 C 0.88057 0.15952 0.83891 0.00000
C1081 C 0.89511 0.16710 0.81643 0.00000
C1082 C 0.96008 0.14749 0.87571 0.00000
C1083 C 0.99629 0.14853 0.87298 0.00000
C1084 C 0.01083 0.15612 0.85049 0.00000
C1085 C 0.98917 0.16265 0.83073 0.00000
C1086 C 0.00372 0.17024 0.80824 0.00000
C1087 C 0.03993 0.17128 0.80552 0.00000
C1088 C 0.06158 0.16475 0.82528 0.00000
C1089 C 0.04703 0.15716 0.84777 0.00000
C1090 C 0.06869 0.15062 0.86753 0.00000
C1091 C 0.10489 0.15167 0.86481 0.00000
C1092 C 0.11944 0.15925 0.84232 0.00000
C1093 C 0.09778 0.16578 0.82256 0.00000
H1094 H 0.94208 0.17376 0.79705 0.00000
H1095 H 0.89146 0.14737 0.87532 0.00000
H1096 H 0.87908 0.17195 0.80180 0.00000
H1097 H 0.94932 0.14188 0.89235 0.00000
H1098 H 0.01232 0.14369 0.88761 0.00000
H1099 H 0.98769 0.17507 0.79361 0.00000
H1100 H 0.05069 0.17690 0.78887 0.00000
H1101 H 0.05792 0.14501 0.88418 0.00000
H1102 H 0.12092 0.14684 0.87944 0.00000
H1103 H 0.10855 0.17138 0.80591 0.00000
loop_
_geom_bond_atom_site_label_1
_geom_bond_atom_site_label_2
_geom_bond_distance
_geom_bond_site_symmetry_2
_ccdc_geom_bond_type
O0 In4 2.242 . S
O0 C8 1.247 . A
O1 In4 2.259 . S
O1 C8 1.260 . A
O2 In4 2.300 . S
O2 C11 1.245 . A
O3 In4 2.234 . S
O3 C11 1.251 . A
In4 O6 2.242 . S
In4 O7 2.285 . S
In4 O9 2.397 . S
In4 O10 2.185 . S
C5 O9 1.269 . A
C5 O10 1.254 . A
O6 C12 1.251 . A
O7 C12 1.256 . A
O13 In17 2.242 . S
O13 C21 1.247 . A
O14 In17 2.259 . S
O14 C21 1.260 . A
O15 In17 2.300 . S
O15 C24 1.245 . A
O16 In17 2.234 . S
O16 C24 1.251 . A
In17 O19 2.242 . S
In17 O20 2.285 . S
In17 O22 2.397 . S
In17 O23 2.185 . S
C18 O22 1.269 . A
C18 O23 1.254 . A
O19 C25 1.251 . A
O20 C25 1.256 . A
O26 In30 2.242 . S
O26 C34 1.247 . A
O27 In30 2.259 . S
O27 C34 1.260 . A
O28 In30 2.300 . S
O28 C37 1.245 . A
O29 In30 2.234 . S
O29 C37 1.251 . A
In30 O32 2.242 . S
In30 O33 2.285 . S
In30 O35 2.397 . S
In30 O36 2.185 . S
C31 O35 1.269 . A
C31 O36 1.254 . A
O32 C38 1.251 . A
O33 C38 1.256 . A
O39 In43 2.242 . S
O39 C47 1.247 . A
O40 In43 2.259 . S
O40 C47 1.260 . A
O41 In43 2.300 . S
O41 C50 1.245 . A
O42 In43 2.234 . S
O42 C50 1.251 . A
In43 O45 2.242 . S
In43 O46 2.285 . S
In43 O48 2.397 . S
In43 O49 2.185 . S
C44 O48 1.269 . A
C44 O49 1.254 . A
O45 C51 1.251 . A
O46 C51 1.256 . A
O52 In56 2.242 . S
O52 C60 1.247 . A
O53 In56 2.259 . S
O53 C60 1.260 . A
O54 In56 2.300 . S
O54 C63 1.245 . A
O55 In56 2.234 . S
O55 C63 1.251 . A
In56 O58 2.242 . S
In56 O59 2.285 . S
In56 O61 2.397 . S
In56 O62 2.185 . S
C57 O61 1.269 . A
C57 O62 1.254 . A
O58 C64 1.251 . A
O59 C64 1.256 . A
O65 In69 2.242 . S
O65 C73 1.247 . A
O66 In69 2.259 . S
O66 C73 1.260 . A
O67 In69 2.300 . S
O67 C76 1.245 . A
O68 In69 2.234 . S
O68 C76 1.251 . A
In69 O71 2.242 . S
In69 O72 2.285 . S
In69 O74 2.397 . S
In69 O75 2.185 . S
C70 O74 1.269 . A
C70 O75 1.254 . A
O71 C77 1.251 . A
O72 C77 1.256 . A
O78 In82 2.242 . S
O78 C86 1.247 . A
O79 In82 2.259 . S
O79 C86 1.260 . A
O80 In82 2.300 . S
O80 C89 1.245 . A
O81 In82 2.234 . S
O81 C89 1.251 . A
In82 O84 2.242 . S
In82 O85 2.285 . S
In82 O87 2.397 . S
In82 O88 2.185 . S
C83 O87 1.269 . A
C83 O88 1.254 . A
O84 C90 1.251 . A
O85 C90 1.256 . A
O91 In95 2.242 . S
O91 C99 1.247 . A
O92 In95 2.259 . S
O92 C99 1.260 . A
O93 In95 2.300 . S
O93 C102 1.245 . A
O94 In95 2.234 . S
O94 C102 1.251 . A
In95 O97 2.242 . S
In95 O98 2.285 . S
In95 O100 2.397 . S
In95 O101 2.185 . S
C96 O100 1.269 . A
C96 O101 1.254 . A
O97 C103 1.251 . A
O98 C103 1.256 . A
O104 In108 2.242 . S
O104 C112 1.247 . A
O105 In108 2.259 . S
O105 C112 1.260 . A
O106 In108 2.300 . S
O106 C115 1.245 . A
O107 In108 2.234 . S
O107 C115 1.251 . A
In108 O110 2.242 . S
In108 O111 2.285 . S
In108 O113 2.397 . S
In108 O114 2.185 . S
C109 O113 1.269 . A
C109 O114 1.254 . A
O110 C116 1.251 . A
O111 C116 1.256 . A
O117 In121 2.242 . S
O117 C125 1.247 . A
O118 In121 2.259 . S
O118 C125 1.260 . A
O119 In121 2.300 . S
O119 C128 1.245 . A
O120 In121 2.234 . S
O120 C128 1.251 . A
In121 O123 2.242 . S
In121 O124 2.285 . S
In121 O126 2.397 . S
In121 O127 2.185 . S
C122 O126 1.269 . A
C122 O127 1.254 . A
O123 C129 1.251 . A
O124 C129 1.256 . A
O130 In134 2.242 . S
O130 C138 1.247 . A
O131 In134 2.259 . S
O131 C138 1.260 . A
O132 In134 2.300 . S
O132 C141 1.245 . A
O133 In134 2.234 . S
O133 C141 1.251 . A
In134 O136 2.242 . S
In134 O137 2.285 . S
In134 O139 2.397 . S
In134 O140 2.185 . S
C135 O139 1.269 . A
C135 O140 1.254 . A
O136 C142 1.251 . A
O137 C142 1.256 . A
O143 In147 2.242 . S
O143 C151 1.247 . A
O144 In147 2.259 . S
O144 C151 1.260 . A
O145 In147 2.300 . S
O145 C154 1.245 . A
O146 In147 2.234 . S
O146 C154 1.251 . A
In147 O149 2.242 . S
In147 O150 2.285 . S
In147 O152 2.397 . S
In147 O153 2.185 . S
C148 O152 1.269 . A
C148 O153 1.254 . A
O149 C155 1.251 . A
O150 C155 1.256 . A
O156 In160 2.242 . S
O156 C164 1.247 . A
O157 In160 2.259 . S
O157 C164 1.260 . A
O158 In160 2.300 . S
O158 C167 1.245 . A
O159 In160 2.234 . S
O159 C167 1.251 . A
In160 O162 2.242 . S
In160 O163 2.285 . S
In160 O165 2.397 . S
In160 O166 2.185 . S
C161 O165 1.269 . A
C161 O166 1.254 . A
O162 C168 1.251 . A
O163 C168 1.256 . A
O169 In173 2.242 . S
O169 C177 1.247 . A
O170 In173 2.259 . S
O170 C177 1.260 . A
O171 In173 2.300 . S
O171 C180 1.245 . A
O172 In173 2.234 . S
O172 C180 1.251 . A
In173 O175 2.242 . S
In173 O176 2.285 . S
In173 O178 2.397 . S
In173 O179 2.185 . S
C174 O178 1.269 . A
C174 O179 1.254 . A
O175 C181 1.251 . A
O176 C181 1.256 . A
O182 In186 2.242 . S
O182 C190 1.247 . A
O183 In186 2.259 . S
O183 C190 1.260 . A
O184 In186 2.300 . S
O184 C193 1.245 . A
O185 In186 2.234 . S
O185 C193 1.251 . A
In186 O188 2.242 . S
In186 O189 2.285 . S
In186 O191 2.397 . S
In186 O192 2.185 . S
C187 O191 1.269 . A
C187 O192 1.254 . A
O188 C194 1.251 . A
O189 C194 1.256 . A
O195 In199 2.242 . S
O195 C203 1.247 . A
O196 In199 2.259 . S
O196 C203 1.260 . A
O197 In199 2.300 . S
O197 C206 1.245 . A
O198 In199 2.234 . S
O198 C206 1.251 . A
In199 O201 2.242 . S
In199 O202 2.285 . S
In199 O204 2.397 . S
In199 O205 2.185 . S
C200 O204 1.269 . A
C200 O205 1.254 . A
O201 C207 1.251 . A
O202 C207 1.256 . A
C208 C209 1.540 . A
C208 C213 1.540 . A
C208 H226 1.140 . S
C209 C210 1.540 . A
C209 C217 1.540 . A
C210 C211 1.540 . A
C210 C214 1.540 . A
C211 C212 1.540 . A
C211 H227 1.140 . S
C212 C213 1.540 . A
C213 H228 1.140 . S
C214 C215 1.540 . A
C214 H229 1.140 . S
C215 C216 1.540 . A
C215 H230 1.140 . S
C216 C217 1.540 . A
C216 C221 1.540 . A
C217 C218 1.540 . A
C218 C219 1.540 . A
C218 H231 1.140 . S
C219 C220 1.540 . A
C219 H232 1.140 . S
C220 C221 1.540 . A
C220 C225 1.540 . A
C221 C222 1.540 . A
C222 C223 1.540 . A
C222 H233 1.140 . S
C223 C224 1.540 . A
C223 H234 1.140 . S
C224 C225 1.540 . A
C225 H235 1.140 . S
C236 C237 1.540 . A
C236 C241 1.540 . A
C236 H254 1.140 . S
C237 C238 1.540 . A
C237 C245 1.540 . A
C238 C239 1.540 . A
C238 C242 1.540 . A
C239 C240 1.540 . A
C239 H255 1.140 . S
C240 C241 1.540 . A
C241 H256 1.140 . S
C242 C243 1.540 . A
C242 H257 1.140 . S
C243 C244 1.540 . A
C243 H258 1.140 . S
C244 C245 1.540 . A
C244 C249 1.540 . A
C245 C246 1.540 . A
C246 C247 1.540 . A
C246 H259 1.140 . S
C247 C248 1.540 . A
C247 H260 1.140 . S
C248 C249 1.540 . A
C248 C253 1.540 . A
C249 C250 1.540 . A
C250 C251 1.540 . A
C250 H261 1.140 . S
C251 C252 1.540 . A
C251 H262 1.140 . S
C252 C253 1.540 . A
C253 H263 1.140 . S
C264 C265 1.540 . A
C264 C269 1.540 . A
C264 H282 1.140 . S
C265 C266 1.540 . A
C265 C273 1.540 . A
C266 C267 1.540 . A
C266 C270 1.540 . A
C267 C268 1.540 . A
C267 H283 1.140 . S
C268 C269 1.540 . A
C269 H284 1.140 . S
C270 C271 1.540 . A
C270 H285 1.140 . S
C271 C272 1.540 . A
C271 H286 1.140 . S
C272 C273 1.540 . A
C272 C277 1.540 . A
C273 C274 1.540 . A
C274 C275 1.540 . A
C274 H287 1.140 . S
C275 C276 1.540 . A
C275 H288 1.140 . S
C276 C277 1.540 . A
C276 C281 1.540 . A
C277 C278 1.540 . A
C278 C279 1.540 . A
C278 H289 1.140 . S
C279 C280 1.540 . A
C279 H290 1.140 . S
C280 C281 1.540 . A
C281 H291 1.140 . S
C292 C293 1.540 . A
C292 C297 1.540 . A
C292 H310 1.140 . S
C293 C294 1.540 . A
C293 C301 1.540 . A
C294 C295 1.540 . A
C294 C298 1.540 . A
C295 C296 1.540 . A
C295 H311 1.140 . S
C296 C297 1.540 . A
C297 H312 1.140 . S
C298 C299 1.540 . A
C298 H313 1.140 . S
C299 C300 1.540 . A
C299 H314 1.140 . S
C300 C301 1.540 . A
C300 C305 1.540 . A
C301 C302 1.540 . A
C302 C303 1.540 . A
C302 H315 1.140 . S
C303 C304 1.540 . A
C303 H316 1.140 . S
C304 C305 1.540 . A
C304 C309 1.540 . A
C305 C306 1.540 . A
C306 C307 1.540 . A
C306 H317 1.140 . S
C307 C308 1.540 . A
C307 H318 1.140 . S
C308 C309 1.540 . A
C309 H319 1.140 . S
C320 C321 1.540 . A
C320 C325 1.540 . A
C320 H338 1.140 . S
C321 C322 1.540 . A
C321 C329 1.540 . A
C322 C323 1.540 . A
C322 C326 1.540 . A
C323 C324 1.540 . A
C323 H339 1.140 . S
C324 C325 1.540 . A
C325 H340 1.140 . S
C326 C327 1.540 . A
C326 H341 1.140 . S
C327 C328 1.540 . A
C327 H342 1.140 . S
C328 C329 1.540 . A
C328 C333 1.540 . A
C329 C330 1.540 . A
C330 C331 1.540 . A
C330 H343 1.140 . S
C331 C332 1.540 . A
C331 H344 1.140 . S
C332 C333 1.540 . A
C332 C337 1.540 . A
C333 C334 1.540 . A
C334 C335 1.540 . A
C334 H345 1.140 . S
C335 C336 1.540 . A
C335 H346 1.140 . S
C336 C337 1.540 . A
C337 H347 1.140 . S
C348 C349 1.540 . A
C348 C353 1.540 . A
C348 H366 1.140 . S
C349 C350 1.540 . A
C349 C357 1.540 . A
C350 C351 1.540 . A
C350 C354 1.540 . A
C351 C352 1.540 . A
C351 H367 1.140 . S
C352 C353 1.540 . A
C353 H368 1.140 . S
C354 C355 1.540 . A
C354 H369 1.140 . S
C355 C356 1.540 . A
C355 H370 1.140 . S
C356 C357 1.540 . A
C356 C361 1.540 . A
C357 C358 1.540 . A
C358 C359 1.540 . A
C358 H371 1.140 . S
C359 C360 1.540 . A
C359 H372 1.140 . S
C360 C361 1.540 . A
C360 C365 1.540 . A
C361 C362 1.540 . A
C362 C363 1.540 . A
C362 H373 1.140 . S
C363 C364 1.540 . A
C363 H374 1.140 . S
C364 C365 1.540 . A
C365 H375 1.140 . S
C376 C377 1.540 . A
C376 C381 1.540 . A
C376 H394 1.140 . S
C377 C378 1.540 . A
C377 C385 1.540 . A
C378 C379 1.540 . A
C378 C382 1.540 . A
C379 C380 1.540 . A
C379 H395 1.140 . S
C380 C381 1.540 . A
C381 H396 1.140 . S
C382 C383 1.540 . A
C382 H397 1.140 . S
C383 C384 1.540 . A
C383 H398 1.140 . S
C384 C385 1.540 . A
C384 C389 1.540 . A
C385 C386 1.540 . A
C386 C387 1.540 . A
C386 H399 1.140 . S
C387 C388 1.540 . A
C387 H400 1.140 . S
C388 C389 1.540 . A
C388 C393 1.540 . A
C389 C390 1.540 . A
C390 C391 1.540 . A
C390 H401 1.140 . S
C391 C392 1.540 . A
C391 H402 1.140 . S
C392 C393 1.540 . A
C393 H403 1.140 . S
C404 C405 1.540 . A
C404 C409 1.540 . A
C404 H422 1.140 . S
C405 C406 1.540 . A
C405 C413 1.540 . A
C406 C407 1.540 . A
C406 C410 1.540 . A
C407 C408 1.540 . A
C407 H423 1.140 . S
C408 C409 1.540 . A
C409 H424 1.140 . S
C410 C411 1.540 . A
C410 H425 1.140 . S
C411 C412 1.540 . A
C411 H426 1.140 . S
C412 C413 1.540 . A
C412 C417 1.540 . A
C413 C414 1.540 . A
C414 C415 1.540 . A
C414 H427 1.140 . S
C415 C416 1.540 . A
C415 H428 1.140 . S
C416 C417 1.540 . A
C416 C421 1.540 . A
C417 C418 1.540 . A
C418 C419 1.540 . A
C418 H429 1.140 . S
C419 C420 1.540 . A
C419 H430 1.140 . S
C420 C421 1.540 . A
C421 H431 1.140 . S
C432 C433 1.540 . A
C432 C437 1.540 . A
C432 H450 1.140 . S
C433 C434 1.540 . A
C433 C441 1.540 1_545 A
C434 C435 1.540 . A
C434 C438 1.540 . A
C435 C436 1.540 . A
C435 H451 1.140 . S
C436 C437 1.540 . A
C437 H452 1.140 . S
C438 C439 1.540 1_545 A
C438 H453 1.140 . S
C439 C440 1.540 . A
C439 H454 1.140 . S
C440 C441 1.540 . A
C440 C445 1.540 . A
C441 C442 1.540 . A
C442 C443 1.540 . A
C442 H455 1.140 1_565 S
C443 C444 1.540 . A
C443 H456 1.140 . S
C444 C445 1.540 . A
C444 C449 1.540 . A
C445 C446 1.540 . A
C446 C447 1.540 . A
C446 H457 1.140 . S
C447 C448 1.540 . A
C447 H458 1.140 . S
C448 C449 1.540 . A
C449 H459 1.140 . S
C460 C461 1.540 . A
C460 C465 1.540 . A
C460 H478 1.140 . S
C461 C462 1.540 . A
C461 C469 1.540 . A
C462 C463 1.540 . A
C462 C466 1.540 . A
C463 C464 1.540 . A
C463 H479 1.140 . S
C464 C465 1.540 . A
C465 H480 1.140 . S
C466 C467 1.540 . A
C466 H481 1.140 . S
C467 C468 1.540 1_455 A
C467 H482 1.140 1_455 S
C468 C469 1.540 1_655 A
C468 C473 1.540 . A
C469 C470 1.540 1_455 A
C470 C471 1.540 . A
C470 H483 1.140 1_655 S
C471 C472 1.540 . A
C471 H484 1.140 . S
C472 C473 1.540 . A
C472 C477 1.540 . A
C473 C474 1.540 . A
C474 C475 1.540 . A
C474 H485 1.140 . S
C475 C476 1.540 . A
C475 H486 1.140 . S
C476 C477 1.540 . A
C477 H487 1.140 . S
C488 C489 1.540 . A
C488 C493 1.540 . A
C488 H506 1.140 . S
C489 C490 1.540 . A
C489 C497 1.540 1_565 A
C490 C491 1.540 . A
C490 C494 1.540 . A
C491 C492 1.540 . A
C491 H507 1.140 . S
C492 C493 1.540 . A
C493 H508 1.140 . S
C494 C495 1.540 1_565 A
C494 H509 1.140 . S
C495 C496 1.540 . A
C495 H510 1.140 . S
C496 C497 1.540 . A
C496 C501 1.540 . A
C497 C498 1.540 . A
C498 C499 1.540 . A
C498 H511 1.140 1_545 S
C499 C500 1.540 . A
C499 H512 1.140 . S
C500 C501 1.540 . A
C500 C505 1.540 . A
C501 C502 1.540 . A
C502 C503 1.540 . A
C502 H513 1.140 . S
C503 C504 1.540 . A
C503 H514 1.140 . S
C504 C505 1.540 . A
C505 H515 1.140 . S
C516 C517 1.540 . A
C516 C521 1.540 . A
C516 H534 1.140 . S
C517 C518 1.540 . A
C517 C525 1.540 . A
C518 C519 1.540 . A
C518 C522 1.540 . A
C519 C520 1.540 . A
C519 H535 1.140 . S
C520 C521 1.540 . A
C521 H536 1.140 . S
C522 C523 1.540 . A
C522 H537 1.140 . S
C523 C524 1.540 1_655 A
C523 H538 1.140 1_655 S
C524 C525 1.540 1_455 A
C524 C529 1.540 . A
C525 C526 1.540 1_655 A
C526 C527 1.540 . A
C526 H539 1.140 1_455 S
C527 C528 1.540 . A
C527 H540 1.140 . S
C528 C529 1.540 . A
C528 C533 1.540 . A
C529 C530 1.540 . A
C530 C531 1.540 . A
C530 H541 1.140 . S
C531 C532 1.540 . A
C531 H542 1.140 . S
C532 C533 1.540 . A
C533 H543 1.140 . S
C544 C545 1.540 . A
C544 C549 1.540 . A
C544 H562 1.140 . S
C545 C546 1.540 . A
C545 C553 1.540 1_545 A
C546 C547 1.540 . A
C546 C550 1.540 . A
C547 C548 1.540 . A
C547 H563 1.140 . S
C548 C549 1.540 . A
C549 H564 1.140 . S
C550 C551 1.540 1_545 A
C550 H565 1.140 . S
C551 C552 1.540 . A
C551 H566 1.140 . S
C552 C553 1.540 . A
C552 C557 1.540 . A
C553 C554 1.540 . A
C554 C555 1.540 . A
C554 H567 1.140 . S
C555 C556 1.540 . A
C555 H568 1.140 . S
C556 C557 1.540 . A
C556 C561 1.540 . A
C557 C558 1.540 . A
C558 C559 1.540 . A
C558 H569 1.140 . S
C559 C560 1.540 . A
C559 H570 1.140 . S
C560 C561 1.540 . A
C561 H571 1.140 . S
C572 C573 1.540 . A
C572 C577 1.540 . A
C572 H590 1.140 . S
C573 C574 1.540 . A
C573 C581 1.540 . A
C574 C575 1.540 . A
C574 C578 1.540 . A
C575 C576 1.540 . A
C575 H591 1.140 . S
C576 C577 1.540 . A
C577 H592 1.140 . S
C578 C579 1.540 . A
C578 H593 1.140 . S
C579 C580 1.540 1_655 A
C579 H594 1.140 1_655 S
C580 C581 1.540 1_455 A
C580 C585 1.540 . A
C581 C582 1.540 1_655 A
C582 C583 1.540 . A
C582 H595 1.140 1_455 S
C583 C584 1.540 . A
C583 H596 1.140 . S
C584 C585 1.540 . A
C584 C589 1.540 . A
C585 C586 1.540 . A
C586 C587 1.540 . A
C586 H597 1.140 . S
C587 C588 1.540 . A
C587 H598 1.140 . S
C588 C589 1.540 . A
C589 H599 1.140 . S
C600 C601 1.540 . A
C600 C605 1.540 . A
C600 H618 1.140 . S
C601 C602 1.540 . A
C601 C609 1.540 . A
C602 C603 1.540 . A
C602 C606 1.540 . A
C603 C604 1.540 . A
C603 H619 1.140 . S
C604 C605 1.540 . A
C605 H620 1.140 . S
C606 C607 1.540 . A
C606 H621 1.140 . S
C607 C608 1.540 . A
C607 H622 1.140 1_556 S
C608 C609 1.540 . A
C608 C613 1.540 1_556 A
C609 C610 1.540 . A
C610 C611 1.540 1_556 A
C610 H623 1.140 . S
C611 C612 1.540 . A
C611 H624 1.140 . S
C612 C613 1.540 . A
C612 C617 1.540 . A
C613 C614 1.540 . A
C614 C615 1.540 . A
C614 H625 1.140 . S
C615 C616 1.540 . A
C615 H626 1.140 . S
C616 C617 1.540 . A
C617 H627 1.140 . S
C628 C629 1.540 . A
C628 C633 1.540 . A
C628 H646 1.140 . S
C629 C630 1.540 . A
C629 C637 1.540 1_554 A
C630 C631 1.540 . A
C630 C634 1.540 . A
C631 C632 1.540 . A
C631 H647 1.140 . S
C632 C633 1.540 . A
C633 H648 1.140 . S
C634 C635 1.540 1_554 A
C634 H649 1.140 . S
C635 C636 1.540 . A
C635 H650 1.140 . S
C636 C637 1.540 . A
C636 C641 1.540 . A
C637 C638 1.540 . A
C638 C639 1.540 . A
C638 H651 1.140 1_556 S
C639 C640 1.540 . A
C639 H652 1.140 . S
C640 C641 1.540 . A
C640 C645 1.540 . A
C641 C642 1.540 . A
C642 C643 1.540 . A
C642 H653 1.140 . S
C643 C644 1.540 . A
C643 H654 1.140 . S
C644 C645 1.540 . A
C645 H655 1.140 . S
C656 C657 1.540 . A
C656 C661 1.540 . A
C656 H674 1.140 . S
C657 C658 1.540 . A
C657 C665 1.540 1_556 A
C658 C659 1.540 . A
C658 C662 1.540 . A
C659 C660 1.540 . A
C659 H675 1.140 . S
C660 C661 1.540 . A
C661 H676 1.140 . S
C662 C663 1.540 1_556 A
C662 H677 1.140 . S
C663 C664 1.540 . A
C663 H678 1.140 . S
C664 C665 1.540 . A
C664 C669 1.540 . A
C665 C666 1.540 . A
C666 C667 1.540 . A
C666 H679 1.140 1_554 S
C667 C668 1.540 . A
C667 H680 1.140 . S
C668 C669 1.540 . A
C668 C673 1.540 . A
C669 C670 1.540 . A
C670 C671 1.540 . A
C670 H681 1.140 . S
C671 C672 1.540 . A
C671 H682 1.140 . S
C672 C673 1.540 . A
C673 H683 1.140 . S
C684 C685 1.540 . A
C684 C689 1.540 . A
C684 H702 1.140 . S
C685 C686 1.540 . A
C685 C693 1.540 1_556 A
C686 C687 1.540 . A
C686 C690 1.540 . A
C687 C688 1.540 . A
C687 H703 1.140 . S
C688 C689 1.540 . A
C689 H704 1.140 . S
C690 C691 1.540 1_556 A
C690 H705 1.140 . S
C691 C692 1.540 . A
C691 H706 1.140 . S
C692 C693 1.540 . A
C692 C697 1.540 . A
C693 C694 1.540 . A
C694 C695 1.540 . A
C694 H707 1.140 . S
C695 C696 1.540 . A
C695 H708 1.140 . S
C696 C697 1.540 . A
C696 C701 1.540 . A
C697 C698 1.540 . A
C698 C699 1.540 . A
C698 H709 1.140 . S
C699 C700 1.540 . A
C699 H710 1.140 . S
C700 C701 1.540 . A
C701 H711 1.140 . S
C712 C713 1.540 . A
C712 C717 1.540 . A
C712 H730 1.140 . S
C713 C714 1.540 . A
C713 C721 1.540 . A
C714 C715 1.540 . A
C714 C718 1.540 . A
C715 C716 1.540 . A
C715 H731 1.140 . S
C716 C717 1.540 . A
C717 H732 1.140 . S
C718 C719 1.540 . A
C718 H733 1.140 . S
C719 C720 1.540 . A
C719 H734 1.140 . S
C720 C721 1.540 . A
C720 C725 1.540 . A
C721 C722 1.540 . A
C722 C723 1.540 . A
C722 H735 1.140 . S
C723 C724 1.540 . A
C723 H736 1.140 . S
C724 C725 1.540 . A
C724 C729 1.540 . A
C725 C726 1.540 . A
C726 C727 1.540 . A
C726 H737 1.140 . S
C727 C728 1.540 . A
C727 H738 1.140 . S
C728 C729 1.540 . A
C729 H739 1.140 . S
C740 C741 1.540 . A
C740 C745 1.540 . A
C740 H758 1.140 . S
C741 C742 1.540 . A
C741 C749 1.540 . A
C742 C743 1.540 . A
C742 C746 1.540 . A
C743 C744 1.540 . A
C743 H759 1.140 . S
C744 C745 1.540 . A
C745 H760 1.140 . S
C746 C747 1.540 . A
C746 H761 1.140 . S
C747 C748 1.540 . A
C747 H762 1.140 . S
C748 C749 1.540 . A
C748 C753 1.540 . A
C749 C750 1.540 . A
C750 C751 1.540 . A
C750 H763 1.140 . S
C751 C752 1.540 . A
C751 H764 1.140 . S
C752 C753 1.540 . A
C752 C757 1.540 . A
C753 C754 1.540 . A
C754 C755 1.540 . A
C754 H765 1.140 . S
C755 C756 1.540 . A
C755 H766 1.140 . S
C756 C757 1.540 . A
C757 H767 1.140 . S
C768 C769 1.540 . A
C768 C773 1.540 . A
C768 H786 1.140 . S
C769 C770 1.540 . A
C769 C777 1.540 . A
C770 C771 1.540 . A
C770 C774 1.540 . A
C771 C772 1.540 . A
C771 H787 1.140 . S
C772 C773 1.540 . A
C773 H788 1.140 . S
C774 C775 1.540 . A
C774 H789 1.140 . S
C775 C776 1.540 . A
C775 H790 1.140 . S
C776 C777 1.540 . A
C776 C781 1.540 . A
C777 C778 1.540 . A
C778 C779 1.540 . A
C778 H791 1.140 . S
C779 C780 1.540 . A
C779 H792 1.140 . S
C780 C781 1.540 . A
C780 C785 1.540 . A
C781 C782 1.540 . A
C782 C783 1.540 . A
C782 H793 1.140 . S
C783 C784 1.540 . A
C783 H794 1.140 . S
C784 C785 1.540 . A
C785 H795 1.140 . S
C796 C797 1.540 . A
C796 C801 1.540 . A
C796 H814 1.140 . S
C797 C798 1.540 . A
C797 C805 1.540 . A
C798 C799 1.540 . A
C798 C802 1.540 . A
C799 C800 1.540 . A
C799 H815 1.140 . S
C800 C801 1.540 . A
C801 H816 1.140 . S
C802 C803 1.540 . A
C802 H817 1.140 . S
C803 C804 1.540 . A
C803 H818 1.140 . S
C804 C805 1.540 . A
C804 C809 1.540 . A
C805 C806 1.540 . A
C806 C807 1.540 . A
C806 H819 1.140 . S
C807 C808 1.540 . A
C807 H820 1.140 . S
C808 C809 1.540 . A
C808 C813 1.540 . A
C809 C810 1.540 . A
C810 C811 1.540 . A
C810 H821 1.140 . S
C811 C812 1.540 . A
C811 H822 1.140 . S
C812 C813 1.540 . A
C813 H823 1.140 . S
C824 C825 1.540 . A
C824 C829 1.540 . A
C824 H842 1.140 . S
C825 C826 1.540 . A
C825 C833 1.540 . A
C826 C827 1.540 . A
C826 C830 1.540 . A
C827 C828 1.540 . A
C827 H843 1.140 . S
C828 C829 1.540 . A
C829 H844 1.140 . S
C830 C831 1.540 . A
C830 H845 1.140 . S
C831 C832 1.540 . A
C831 H846 1.140 . S
C832 C833 1.540 . A
C832 C837 1.540 . A
C833 C834 1.540 . A
C834 C835 1.540 . A
C834 H847 1.140 . S
C835 C836 1.540 . A
C835 H848 1.140 . S
C836 C837 1.540 . A
C836 C841 1.540 . A
C837 C838 1.540 . A
C838 C839 1.540 . A
C838 H849 1.140 . S
C839 C840 1.540 . A
C839 H850 1.140 . S
C840 C841 1.540 . A
C841 H851 1.140 . S
C852 C853 1.540 . A
C852 C857 1.540 . A
C852 H870 1.140 . S
C853 C854 1.540 . A
C853 C861 1.540 . A
C854 C855 1.540 . A
C854 C858 1.540 . A
C855 C856 1.540 . A
C855 H871 1.140 . S
C856 C857 1.540 . A
C857 H872 1.140 . S
C858 C859 1.540 . A
C858 H873 1.140 . S
C859 C860 1.540 . A
C859 H874 1.140 . S
C860 C861 1.540 . A
C860 C865 1.540 . A
C861 C862 1.540 . A
C862 C863 1.540 . A
C862 H875 1.140 . S
C863 C864 1.540 . A
C863 H876 1.140 . S
C864 C865 1.540 . A
C864 C869 1.540 . A
C865 C866 1.540 . A
C866 C867 1.540 . A
C866 H877 1.140 . S
C867 C868 1.540 . A
C867 H878 1.140 . S
C868 C869 1.540 . A
C869 H879 1.140 . S
C880 C881 1.540 . A
C880 C885 1.540 . A
C880 H898 1.140 . S
C881 C882 1.540 . A
C881 C889 1.540 . A
C882 C883 1.540 . A
C882 C886 1.540 . A
C883 C884 1.540 . A
C883 H899 1.140 . S
C884 C885 1.540 . A
C885 H900 1.140 . S
C886 C887 1.540 . A
C886 H901 1.140 . S
C887 C888 1.540 . A
C887 H902 1.140 . S
C888 C889 1.540 . A
C888 C893 1.540 . A
C889 C890 1.540 . A
C890 C891 1.540 . A
C890 H903 1.140 . S
C891 C892 1.540 . A
C891 H904 1.140 . S
C892 C893 1.540 . A
C892 C897 1.540 . A
C893 C894 1.540 . A
C894 C895 1.540 . A
C894 H905 1.140 . S
C895 C896 1.540 . A
C895 H906 1.140 . S
C896 C897 1.540 . A
C897 H907 1.140 . S
C908 C909 1.540 . A
C908 C913 1.540 . A
C908 H926 1.140 . S
C909 C910 1.540 . A
C909 C917 1.540 . A
C910 C911 1.540 . A
C910 C914 1.540 . A
C911 C912 1.540 . A
C911 H927 1.140 . S
C912 C913 1.540 . A
C913 H928 1.140 . S
C914 C915 1.540 . A
C914 H929 1.140 . S
C915 C916 1.540 . A
C915 H930 1.140 . S
C916 C917 1.540 . A
C916 C921 1.540 . A
C917 C918 1.540 . A
C918 C919 1.540 . A
C918 H931 1.140 . S
C919 C920 1.540 . A
C919 H932 1.140 . S
C920 C921 1.540 . A
C920 C925 1.540 . A
C921 C922 1.540 . A
C922 C923 1.540 . A
C922 H933 1.140 . S
C923 C924 1.540 . A
C923 H934 1.140 . S
C924 C925 1.540 . A
C925 H935 1.140 . S
C936 C937 1.540 . A
C936 C941 1.540 . A
C936 H954 1.140 . S
C937 C938 1.540 . A
C937 C945 1.540 . A
C938 C939 1.540 . A
C938 C942 1.540 . A
C939 C940 1.540 . A
C939 H955 1.140 . S
C940 C941 1.540 . A
C941 H956 1.140 . S
C942 C943 1.540 . A
C942 H957 1.140 . S
C943 C944 1.540 . A
C943 H958 1.140 . S
C944 C945 1.540 . A
C944 C949 1.540 . A
C945 C946 1.540 . A
C946 C947 1.540 . A
C946 H959 1.140 . S
C947 C948 1.540 . A
C947 H960 1.140 . S
C948 C949 1.540 . A
C948 C953 1.540 . A
C949 C950 1.540 . A
C950 C951 1.540 . A
C950 H961 1.140 . S
C951 C952 1.540 . A
C951 H962 1.140 . S
C952 C953 1.540 . A
C953 H963 1.140 . S
C964 C965 1.540 . A
C964 C969 1.540 . A
C964 H982 1.140 . S
C965 C966 1.540 . A
C965 C973 1.540 . A
C966 C967 1.540 . A
C966 C970 1.540 . A
C967 C968 1.540 . A
C967 H983 1.140 . S
C968 C969 1.540 . A
C969 H984 1.140 . S
C970 C971 1.540 . A
C970 H985 1.140 . S
C971 C972 1.540 . A
C971 H986 1.140 . S
C972 C973 1.540 . A
C972 C977 1.540 . A
C973 C974 1.540 . A
C974 C975 1.540 . A
C974 H987 1.140 . S
C975 C976 1.540 . A
C975 H988 1.140 . S
C976 C977 1.540 . A
C976 C981 1.540 . A
C977 C978 1.540 . A
C978 C979 1.540 . A
C978 H989 1.140 . S
C979 C980 1.540 . A
C979 H990 1.140 . S
C980 C981 1.540 . A
C981 H991 1.140 . S
C992 C993 1.540 . A
C992 C997 1.540 . A
C992 H1010 1.140 . S
C993 C994 1.540 . A
C993 C1001 1.540 . A
C994 C995 1.540 . A
C994 C998 1.540 . A
C995 C996 1.540 . A
C995 H1011 1.140 . S
C996 C997 1.540 . A
C997 H1012 1.140 . S
C998 C999 1.540 . A
C998 H1013 1.140 . S
C999 C1000 1.540 . A
C999 H1014 1.140 . S
C1000 C1001 1.540 . A
C1000 C1005 1.540 . A
C1001 C1002 1.540 . A
C1002 C1003 1.540 . A
C1002 H1015 1.140 . S
C1003 C1004 1.540 . A
C1003 H1016 1.140 . S
C1004 C1005 1.540 . A
C1004 C1009 1.540 . A
C1005 C1006 1.540 . A
C1006 C1007 1.540 . A
C1006 H1017 1.140 . S
C1007 C1008 1.540 . A
C1007 H1018 1.140 . S
C1008 C1009 1.540 . A
C1009 H1019 1.140 . S
C1020 C1021 1.540 . A
C1020 C1025 1.540 . A
C1020 H1038 1.140 . S
C1021 C1022 1.540 . A
C1021 C1029 1.540 . A
C1022 C1023 1.540 . A
C1022 C1026 1.540 . A
C1023 C1024 1.540 . A
C1023 H1039 1.140 . S
C1024 C1025 1.540 . A
C1025 H1040 1.140 . S
C1026 C1027 1.540 . A
C1026 H1041 1.140 . S
C1027 C1028 1.540 . A
C1027 H1042 1.140 . S
C1028 C1029 1.540 . A
C1028 C1033 1.540 . A
C1029 C1030 1.540 . A
C1030 C1031 1.540 . A
C1030 H1043 1.140 . S
C1031 C1032 1.540 . A
C1031 H1044 1.140 . S
C1032 C1033 1.540 . A
C1032 C1037 1.540 . A
C1033 C1034 1.540 . A
C1034 C1035 1.540 . A
C1034 H1045 1.140 . S
C1035 C1036 1.540 . A
C1035 H1046 1.140 . S
C1036 C1037 1.540 . A
C1037 H1047 1.140 . S
C1048 C1049 1.540 . A
C1048 C1053 1.540 . A
C1048 H1066 1.140 . S
C1049 C1050 1.540 . A
C1049 C1057 1.540 . A
C1050 C1051 1.540 . A
C1050 C1054 1.540 . A
C1051 C1052 1.540 . A
C1051 H1067 1.140 . S
C1052 C1053 1.540 . A
C1053 H1068 1.140 . S
C1054 C1055 1.540 . A
C1054 H1069 1.140 . S
C1055 C1056 1.540 . A
C1055 H1070 1.140 1_545 S
C1056 C1057 1.540 . A
C1056 C1061 1.540 1_545 A
C1057 C1058 1.540 . A
C1058 C1059 1.540 1_545 A
C1058 H1071 1.140 . S
C1059 C1060 1.540 . A
C1059 H1072 1.140 . S
C1060 C1061 1.540 . A
C1060 C1065 1.540 . A
C1061 C1062 1.540 . A
C1062 C1063 1.540 . A
C1062 H1073 1.140 . S
C1063 C1064 1.540 . A
C1063 H1074 1.140 . S
C1064 C1065 1.540 . A
C1065 H1075 1.140 . S
C1076 C1077 1.540 . A
C1076 C1081 1.540 . A
C1076 H1094 1.140 . S
C1077 C1078 1.540 . A
C1077 C1085 1.540 . A
C1078 C1079 1.540 . A
C1078 C1082 1.540 . A
C1079 C1080 1.540 . A
C1079 H1095 1.140 . S
C1080 C1081 1.540 . A
C1081 H1096 1.140 . S
C1082 C1083 1.540 . A
C1082 H1097 1.140 . S
C1083 C1084 1.540 1_655 A
C1083 H1098 1.140 1_655 S
C1084 C1085 1.540 1_455 A
C1084 C1089 1.540 . A
C1085 C1086 1.540 1_655 A
C1086 C1087 1.540 . A
C1086 H1099 1.140 1_455 S
C1087 C1088 1.540 . A
C1087 H1100 1.140 . S
C1088 C1089 1.540 . A
C1088 C1093 1.540 . A
C1089 C1090 1.540 . A
C1090 C1091 1.540 . A
C1090 H1101 1.140 . S
C1091 C1092 1.540 . A
C1091 H1102 1.140 . S
C1092 C1093 1.540 . A
C1093 H1103 1.140 . S
C212 C190 0.991 . S
C224 C8 0.985 . S
C240 C203 1.002 . S
C252 C21 1.008 . S
C268 C34 1.006 . S
C280 C112 0.992 . S
C296 C47 1.002 . S
C308 C125 0.988 . S
C324 C138 1.002 . S
C336 C60 1.008 . S
C352 C73 1.007 . S
C364 C151 1.005 . S
C380 C164 0.990 . S
C392 C86 0.986 . S
C408 C99 1.006 . S
C420 C177 1.006 . S
C436 C12 1.509 . S
C448 C76 1.587 . S
C464 C57 1.630 . S
C476 C18 1.625 . S
C492 C38 1.509 . S
C504 C24 1.586 . S
C520 C31 1.592 . S
C532 C44 1.592 . S
C548 C64 1.556 . S
C560 C50 1.594 . S
C576 C70 1.625 . S
C588 C83 1.630 . S
C604 C89 1.586 . S
C616 C51 1.512 . S
C632 C25 1.508 . S
C644 C11 1.586 . S
C660 C77 1.509 . S
C672 C37 1.587 . S
C688 C103 1.552 . S
C700 C63 1.593 . S
C716 C154 1.586 . S
C728 C116 1.508 . S
C744 C128 1.594 . S
C756 C168 1.556 . S
C772 C142 1.509 . S
C784 C180 1.587 . S
C800 C148 1.624 . S
C812 C161 1.611 . S
C828 C167 1.594 . S
C840 C181 1.556 . S
C856 C174 1.628 . S
C868 C187 1.619 . S
C884 C155 1.548 . S
C896 C193 1.592 . S
C912 C200 1.602 . S
C924 C135 1.593 . S
C940 C207 1.556 . S
C952 C115 1.594 . S
C968 C122 1.625 . S
C980 C109 1.630 . S
C996 C141 1.586 . S
C1008 C129 1.509 . S
C1024 C194 1.555 . S
C1036 C206 1.593 . S
C1052 C102 1.586 . S
C1064 C90 1.508 . S
C1080 C5 1.608 . S
C1092 C96 1.596 . S
