# Generated by pormake.
# Topology pcb, (4)-cn, num edge types: 1
# Building blocks:
#     Node 0, Type 0, BuildingBlock: N380, # of connection points: 8
#     Node 1, Type 0, BuildingBlock: N380, # of connection points: 8
#     Node 2, Type 0, BuildingBlock: N380, # of connection points: 8
#     Node 3, Type 0, BuildingBlock: N380, # of connection points: 8
#     Node 4, Type 0, BuildingBlock: N380, # of connection points: 8
#     Node 5, Type 0, BuildingBlock: N380, # of connection points: 8
#     Node 6, Type 0, BuildingBlock: N380, # of connection points: 8
#     Node 7, Type 0, BuildingBlock: N380, # of connection points: 8
#     Node 8, Type 0, BuildingBlock: N380, # of connection points: 8
#     Node 9, Type 0, BuildingBlock: N380, # of connection points: 8
#     Node 10, Type 0, BuildingBlock: N380, # of connection points: 8
#     Node 11, Type 0, BuildingBlock: N380, # of connection points: 8
#     Node 12, Type 0, BuildingBlock: N380, # of connection points: 8
#     Node 13, Type 0, BuildingBlock: N380, # of connection points: 8
#     Node 14, Type 0, BuildingBlock: N380, # of connection points: 8
#     Node 15, Type 0, BuildingBlock: N380, # of connection points: 8
#     Edge 16, Type (0, 0), BuildingBlock: E108, # of connection points: 2
#     Edge 17, Type (0, 0), BuildingBlock: E108, # of connection points: 2
#     Edge 18, Type (0, 0), BuildingBlock: E108, # of connection points: 2
#     Edge 19, Type (0, 0), BuildingBlock: E108, # of connection points: 2
#     Edge 20, Type (0, 0), BuildingBlock: E108, # of connection points: 2
#     Edge 21, Type (0, 0), BuildingBlock: E108, # of connection points: 2
#     Edge 22, Type (0, 0), BuildingBlock: E108, # of connection points: 2
#     Edge 23, Type (0, 0), BuildingBlock: E108, # of connection points: 2
#     Edge 24, Type (0, 0), BuildingBlock: E108, # of connection points: 2
#     Edge 25, Type (0, 0), BuildingBlock: E108, # of connection points: 2
#     Edge 26, Type (0, 0), BuildingBlock: E108, # of connection points: 2
#     Edge 27, Type (0, 0), BuildingBlock: E108, # of connection points: 2
#     Edge 28, Type (0, 0), BuildingBlock: E108, # of connection points: 2
#     Edge 29, Type (0, 0), BuildingBlock: E108, # of connection points: 2
#     Edge 30, Type (0, 0), BuildingBlock: E108, # of connection points: 2
#     Edge 31, Type (0, 0), BuildingBlock: E108, # of connection points: 2
#     Edge 32, Type (0, 0), BuildingBlock: E108, # of connection points: 2
#     Edge 33, Type (0, 0), BuildingBlock: E108, # of connection points: 2
#     Edge 34, Type (0, 0), BuildingBlock: E108, # of connection points: 2
#     Edge 35, Type (0, 0), BuildingBlock: E108, # of connection points: 2
#     Edge 36, Type (0, 0), BuildingBlock: E108, # of connection points: 2
#     Edge 37, Type (0, 0), BuildingBlock: E108, # of connection points: 2
#     Edge 38, Type (0, 0), BuildingBlock: E108, # of connection points: 2
#     Edge 39, Type (0, 0), BuildingBlock: E108, # of connection points: 2
#     Edge 40, Type (0, 0), BuildingBlock: E108, # of connection points: 2
#     Edge 41, Type (0, 0), BuildingBlock: E108, # of connection points: 2
#     Edge 42, Type (0, 0), BuildingBlock: E108, # of connection points: 2
#     Edge 43, Type (0, 0), BuildingBlock: E108, # of connection points: 2
#     Edge 44, Type (0, 0), BuildingBlock: E108, # of connection points: 2
#     Edge 45, Type (0, 0), BuildingBlock: E108, # of connection points: 2
#     Edge 46, Type (0, 0), BuildingBlock: E108, # of connection points: 2
#     Edge 47, Type (0, 0), BuildingBlock: E108, # of connection points: 2
# Relax obj value: 0.052
# Max RMSD: 0.265
# Mean RMSD: 0.259
data_pcb+N380+E108
_symmetry_space_group_name_H-M    P1
_symmetry_Int_Tables_number       1
_symmetry_cell_setting            triclinic
loop_
_symmetry_equiv_pos_as_xyz
'x, y, z'
_cell_length_a     36.764
_cell_length_b     37.217
_cell_length_c     37.443
_cell_angle_alpha  90.694
_cell_angle_beta   90.509
_cell_angle_gamma  90.602
loop_
_atom_site_label
_atom_site_type_symbol
_atom_site_fract_x
_atom_site_fract_y
_atom_site_fract_z
_atom_type_partial_charge
Cd0 Cd 0.79396 0.10952 0.78408 0.00000
Cd1 Cd 0.85245 0.18253 0.87220 0.00000
Cd2 Cd 0.86073 0.17092 0.78416 0.00000
Cd3 Cd 0.78567 0.12113 0.87211 0.00000
C4 C 0.78010 0.19102 0.76008 0.00000
C5 C 0.82362 0.14059 0.93781 0.00000
C6 C 0.76815 0.20490 0.87389 0.00000
C7 C 0.85216 0.12038 0.72513 0.00000
C8 C 0.82904 0.05451 0.84005 0.00000
C9 C 0.88971 0.23499 0.81928 0.00000
C10 C 0.91552 0.13367 0.83853 0.00000
C11 C 0.72732 0.08813 0.83032 0.00000
O12 O 0.76834 0.15645 0.76368 0.00000
O13 O 0.81075 0.19979 0.76544 0.00000
O14 O 0.84608 0.15731 0.92125 0.00000
O15 O 0.79625 0.12338 0.93116 0.00000
O16 O 0.80413 0.21384 0.87580 0.00000
O17 O 0.75780 0.17464 0.87315 0.00000
O18 O 0.83000 0.10333 0.74176 0.00000
O19 O 0.87026 0.14740 0.72969 0.00000
O20 O 0.82055 0.06379 0.80594 0.00000
O21 O 0.81860 0.07098 0.86515 0.00000
O22 O 0.87438 0.22718 0.84658 0.00000
O23 O 0.89300 0.22216 0.78967 0.00000
O24 O 0.89980 0.15001 0.86713 0.00000
O25 O 0.90565 0.13869 0.80881 0.00000
O26 O 0.74235 0.09628 0.80295 0.00000
O27 O 0.73330 0.09116 0.86204 0.00000
O28 O 0.82320 0.14603 0.82814 0.00000
Cd29 Cd 0.88226 0.20580 0.21164 0.00000
Cd30 Cd 0.81040 0.14510 0.12385 0.00000
Cd31 Cd 0.82106 0.13899 0.21214 0.00000
Cd32 Cd 0.87161 0.21191 0.12335 0.00000
C33 C 0.79921 0.21882 0.23452 0.00000
C34 C 0.85336 0.17275 0.05815 0.00000
C35 C 0.78657 0.22795 0.12037 0.00000
C36 C 0.87128 0.14946 0.27153 0.00000
C37 C 0.93923 0.17075 0.15690 0.00000
C38 C 0.75709 0.10869 0.17689 0.00000
C39 C 0.86030 0.08426 0.15918 0.00000
C40 C 0.90360 0.27089 0.16441 0.00000
O41 O 0.83409 0.23085 0.23107 0.00000
O42 O 0.79085 0.18831 0.22964 0.00000
O43 O 0.83652 0.15068 0.07495 0.00000
O44 O 0.87030 0.20016 0.06449 0.00000
O45 O 0.77806 0.19227 0.11903 0.00000
O46 O 0.81705 0.23862 0.12124 0.00000
O47 O 0.88845 0.17122 0.25467 0.00000
O48 O 0.84424 0.13110 0.26703 0.00000
O49 O 0.92923 0.17974 0.19075 0.00000
O50 O 0.92276 0.18028 0.13144 0.00000
O51 O 0.76516 0.12335 0.14939 0.00000
O52 O 0.76972 0.10627 0.20669 0.00000
O53 O 0.84394 0.09893 0.13012 0.00000
O54 O 0.85467 0.09458 0.18866 0.00000
O55 O 0.89518 0.25653 0.19196 0.00000
O56 O 0.90106 0.26426 0.13277 0.00000
O57 O 0.84633 0.17545 0.16774 0.00000
Cd58 Cd 0.85615 0.80041 0.18914 0.00000
Cd59 Cd 0.79413 0.89276 0.12853 0.00000
Cd60 Cd 0.79792 0.80351 0.12043 0.00000
Cd61 Cd 0.85236 0.88966 0.19723 0.00000
C62 C 0.77095 0.78235 0.19822 0.00000
C63 C 0.84106 0.95617 0.15945 0.00000
C64 C 0.76713 0.89767 0.20995 0.00000
C65 C 0.84278 0.74094 0.13113 0.00000
C66 C 0.91884 0.85198 0.15807 0.00000
C67 C 0.73825 0.84267 0.08885 0.00000
C68 C 0.84362 0.85435 0.06909 0.00000
C69 C 0.87846 0.84656 0.25589 0.00000
O70 O 0.80550 0.78375 0.21161 0.00000
O71 O 0.76430 0.78774 0.16774 0.00000
O72 O 0.82386 0.94031 0.13644 0.00000
O73 O 0.85629 0.94881 0.18714 0.00000
O74 O 0.76026 0.89951 0.17423 0.00000
O75 O 0.79700 0.89500 0.22170 0.00000
O76 O 0.86034 0.75684 0.15386 0.00000
O77 O 0.81696 0.74705 0.11198 0.00000
O78 O 0.90577 0.81860 0.16566 0.00000
O79 O 0.90405 0.87851 0.16759 0.00000
O80 O 0.74788 0.86979 0.10448 0.00000
O81 O 0.74855 0.81201 0.08611 0.00000
O82 O 0.82901 0.88448 0.08382 0.00000
O83 O 0.83520 0.82509 0.07829 0.00000
O84 O 0.86847 0.81940 0.24055 0.00000
O85 O 0.87875 0.87846 0.25008 0.00000
O86 O 0.82514 0.84658 0.15883 0.00000
Cd87 Cd 0.19681 0.84963 0.18454 0.00000
Cd88 Cd 0.10484 0.78809 0.11805 0.00000
Cd89 Cd 0.19527 0.79444 0.11366 0.00000
Cd90 Cd 0.10638 0.84328 0.18893 0.00000
C91 C 0.21540 0.76566 0.19119 0.00000
C92 C 0.03984 0.83171 0.14814 0.00000
C93 C 0.09852 0.75847 0.19818 0.00000
C94 C 0.25814 0.84000 0.12848 0.00000
C95 C 0.14485 0.91128 0.15377 0.00000
C96 C 0.15658 0.73560 0.07837 0.00000
C97 C 0.14453 0.84004 0.06204 0.00000
C98 C 0.14875 0.86814 0.25019 0.00000
O99 O 0.21354 0.79927 0.20578 0.00000
O100 O 0.21054 0.76001 0.16030 0.00000
O101 O 0.05642 0.81594 0.12515 0.00000
O102 O 0.04669 0.84597 0.17665 0.00000
O103 O 0.09736 0.75288 0.16218 0.00000
O104 O 0.10084 0.78762 0.21111 0.00000
O105 O 0.24152 0.85613 0.15120 0.00000
O106 O 0.25245 0.81501 0.10817 0.00000
O107 O 0.17856 0.89898 0.16220 0.00000
O108 O 0.11791 0.89565 0.16168 0.00000
O109 O 0.12879 0.74386 0.09325 0.00000
O110 O 0.18759 0.74667 0.07723 0.00000
O111 O 0.11385 0.82432 0.07502 0.00000
O112 O 0.17401 0.83216 0.07209 0.00000
O113 O 0.17657 0.85951 0.23558 0.00000
O114 O 0.11658 0.86780 0.24313 0.00000
O115 O 0.15083 0.81886 0.15129 0.00000
Cd116 Cd 0.13659 0.19521 0.19336 0.00000
Cd117 Cd 0.19795 0.10475 0.12823 0.00000
Cd118 Cd 0.19298 0.19406 0.12405 0.00000
Cd119 Cd 0.14155 0.10590 0.19754 0.00000
C120 C 0.22184 0.21403 0.20248 0.00000
C121 C 0.15253 0.04027 0.15679 0.00000
C122 C 0.22721 0.09859 0.20916 0.00000
C123 C 0.14774 0.25590 0.13785 0.00000
C124 C 0.07361 0.14357 0.16061 0.00000
C125 C 0.25221 0.15619 0.09027 0.00000
C126 C 0.14643 0.14374 0.07092 0.00000
C127 C 0.11659 0.14755 0.25827 0.00000
O128 O 0.18767 0.21198 0.21611 0.00000
O129 O 0.22772 0.20929 0.17173 0.00000
O130 O 0.16894 0.05676 0.13433 0.00000
O131 O 0.13798 0.04693 0.18492 0.00000
O132 O 0.23312 0.09751 0.17333 0.00000
O133 O 0.19764 0.10070 0.22128 0.00000
O134 O 0.13098 0.23938 0.16003 0.00000
O135 O 0.17311 0.25045 0.11823 0.00000
O136 O 0.08653 0.17693 0.16954 0.00000
O137 O 0.08894 0.11704 0.16884 0.00000
O138 O 0.24329 0.12868 0.10480 0.00000
O139 O 0.24150 0.18677 0.08896 0.00000
O140 O 0.16176 0.11350 0.08421 0.00000
O141 O 0.15479 0.17289 0.08132 0.00000
O142 O 0.12588 0.17510 0.24403 0.00000
O143 O 0.11648 0.11578 0.25108 0.00000
O144 O 0.16727 0.14998 0.16079 0.00000
Cd145 Cd 0.80430 0.86166 0.80688 0.00000
Cd146 Cd 0.89670 0.80308 0.87228 0.00000
Cd147 Cd 0.80621 0.80677 0.87665 0.00000
Cd148 Cd 0.89478 0.85797 0.80252 0.00000
C149 C 0.78645 0.77712 0.79849 0.00000
C150 C 0.96135 0.84850 0.84319 0.00000
C151 C 0.90340 0.77336 0.79156 0.00000
C152 C 0.74298 0.85042 0.86264 0.00000
C153 C 0.85566 0.92495 0.83901 0.00000
C154 C 0.84537 0.74920 0.91080 0.00000
C155 C 0.85647 0.85405 0.92928 0.00000
C156 C 0.85229 0.88135 0.74170 0.00000
O157 O 0.78804 0.81073 0.78459 0.00000
O158 O 0.79131 0.77172 0.82928 0.00000
O159 O 0.94488 0.83233 0.86583 0.00000
O160 O 0.95442 0.86246 0.81496 0.00000
O161 O 0.90455 0.76793 0.82744 0.00000
O162 O 0.90084 0.80239 0.77921 0.00000
O163 O 0.75948 0.86696 0.84028 0.00000
O164 O 0.74885 0.82568 0.88245 0.00000
O165 O 0.82208 0.91162 0.83026 0.00000
O166 O 0.88274 0.91009 0.83083 0.00000
O167 O 0.87310 0.75823 0.89614 0.00000
O168 O 0.81426 0.75936 0.91211 0.00000
O169 O 0.88731 0.83919 0.91604 0.00000
O170 O 0.82708 0.84527 0.91902 0.00000
O171 O 0.82452 0.87195 0.75608 0.00000
O172 O 0.88445 0.88198 0.74880 0.00000
O173 O 0.85049 0.83237 0.83958 0.00000
Cd174 Cd 0.15422 0.80848 0.81356 0.00000
Cd175 Cd 0.21636 0.89943 0.88015 0.00000
Cd176 Cd 0.21052 0.81004 0.88394 0.00000
Cd177 Cd 0.16006 0.89786 0.80976 0.00000
C178 C 0.23930 0.79066 0.80600 0.00000
C179 C 0.17162 0.96349 0.85093 0.00000
C180 C 0.24581 0.90619 0.79980 0.00000
C181 C 0.16470 0.74772 0.86908 0.00000
C182 C 0.09169 0.85929 0.84527 0.00000
C183 C 0.27007 0.84848 0.91897 0.00000
C184 C 0.16437 0.85967 0.93634 0.00000
C185 C 0.13479 0.85611 0.74843 0.00000
O186 O 0.20518 0.79235 0.79173 0.00000
O187 O 0.24518 0.79536 0.83688 0.00000
O188 O 0.18783 0.94712 0.87366 0.00000
O189 O 0.15705 0.95676 0.82251 0.00000
O190 O 0.25168 0.90722 0.83575 0.00000
O191 O 0.21624 0.90378 0.78711 0.00000
O192 O 0.14813 0.76413 0.84663 0.00000
O193 O 0.19008 0.75341 0.88920 0.00000
O194 O 0.10430 0.82611 0.83648 0.00000
O195 O 0.10729 0.88603 0.83742 0.00000
O196 O 0.26144 0.87594 0.90437 0.00000
O197 O 0.25906 0.81778 0.91999 0.00000
O198 O 0.18002 0.89013 0.92345 0.00000
O199 O 0.17246 0.83064 0.92601 0.00000
O200 O 0.14379 0.82862 0.76276 0.00000
O201 O 0.13498 0.88786 0.75572 0.00000
O202 O 0.18530 0.85395 0.84685 0.00000
Cd203 Cd 0.20190 0.14652 0.81489 0.00000
Cd204 Cd 0.10611 0.20521 0.87503 0.00000
Cd205 Cd 0.19640 0.20311 0.88436 0.00000
Cd206 Cd 0.11163 0.14861 0.80555 0.00000
C207 C 0.21869 0.23112 0.80732 0.00000
C208 C 0.04339 0.15800 0.84251 0.00000
C209 C 0.10207 0.23278 0.79396 0.00000
C210 C 0.26082 0.16017 0.87393 0.00000
C211 C 0.15036 0.08322 0.84428 0.00000
C212 C 0.15503 0.26088 0.91622 0.00000
C213 C 0.14491 0.15635 0.93427 0.00000
C214 C 0.15681 0.12440 0.74718 0.00000
O215 O 0.21818 0.19714 0.79341 0.00000
O216 O 0.21255 0.23720 0.83779 0.00000
O217 O 0.05871 0.17501 0.86599 0.00000
O218 O 0.05163 0.14345 0.81472 0.00000
O219 O 0.09944 0.23908 0.82974 0.00000
O220 O 0.10557 0.20348 0.78183 0.00000
O221 O 0.24546 0.14280 0.85073 0.00000
O222 O 0.25378 0.18531 0.89335 0.00000
O223 O 0.18404 0.09687 0.83737 0.00000
O224 O 0.12339 0.09742 0.83459 0.00000
O225 O 0.12804 0.25103 0.90006 0.00000
O226 O 0.18622 0.25127 0.91926 0.00000
O227 O 0.11438 0.17037 0.91932 0.00000
O228 O 0.17452 0.16535 0.92562 0.00000
O229 O 0.18384 0.13462 0.76305 0.00000
O230 O 0.12442 0.12342 0.75251 0.00000
O231 O 0.15401 0.17586 0.84496 0.00000
Cd232 Cd 0.70071 0.64247 0.30846 0.00000
Cd233 Cd 0.60784 0.70421 0.37001 0.00000
Cd234 Cd 0.69814 0.69955 0.37775 0.00000
Cd235 Cd 0.61042 0.64712 0.30072 0.00000
C236 C 0.71982 0.72653 0.30017 0.00000
C237 C 0.54321 0.65866 0.33884 0.00000
C238 C 0.60313 0.73149 0.28888 0.00000
C239 C 0.76104 0.65470 0.36639 0.00000
C240 C 0.64791 0.58081 0.33907 0.00000
C241 C 0.65908 0.75866 0.41007 0.00000
C242 C 0.64625 0.65452 0.42881 0.00000
C243 C 0.65378 0.62133 0.24165 0.00000
O244 O 0.71806 0.69250 0.28644 0.00000
O245 O 0.71442 0.73294 0.33073 0.00000
O246 O 0.55943 0.67534 0.36197 0.00000
O247 O 0.55051 0.64374 0.31097 0.00000
O248 O 0.60133 0.73805 0.32467 0.00000
O249 O 0.60555 0.70204 0.27683 0.00000
O250 O 0.74477 0.63766 0.34354 0.00000
O251 O 0.75510 0.68013 0.38581 0.00000
O252 O 0.68183 0.59345 0.33149 0.00000
O253 O 0.62120 0.59574 0.32980 0.00000
O254 O 0.63154 0.74950 0.39444 0.00000
O255 O 0.69001 0.74816 0.41260 0.00000
O256 O 0.61589 0.66935 0.41433 0.00000
O257 O 0.67594 0.66263 0.41959 0.00000
O258 O 0.68137 0.63084 0.25699 0.00000
O259 O 0.62149 0.62131 0.24756 0.00000
O260 O 0.65428 0.67334 0.33924 0.00000
Cd261 Cd 0.29603 0.61307 0.28348 0.00000
Cd262 Cd 0.35676 0.68609 0.37013 0.00000
Cd263 Cd 0.36345 0.67372 0.28204 0.00000
Cd264 Cd 0.28934 0.62544 0.37157 0.00000
C265 C 0.28268 0.69455 0.25911 0.00000
C266 C 0.32858 0.64497 0.43652 0.00000
C267 C 0.27278 0.70941 0.37301 0.00000
C268 C 0.35334 0.62284 0.22352 0.00000
C269 C 0.33142 0.55810 0.33929 0.00000
C270 C 0.39371 0.73774 0.31623 0.00000
C271 C 0.41871 0.63628 0.33581 0.00000
C272 C 0.22996 0.59278 0.33095 0.00000
O273 O 0.27060 0.66014 0.26315 0.00000
O274 O 0.31350 0.70301 0.26391 0.00000
O275 O 0.35094 0.66131 0.41948 0.00000
O276 O 0.30092 0.62801 0.43043 0.00000
O277 O 0.30887 0.71797 0.37428 0.00000
O278 O 0.26209 0.67926 0.37266 0.00000
O279 O 0.33128 0.60616 0.24063 0.00000
O280 O 0.37180 0.64969 0.22758 0.00000
O281 O 0.32247 0.56722 0.30525 0.00000
O282 O 0.32158 0.57487 0.36444 0.00000
O283 O 0.37875 0.73030 0.34384 0.00000
O284 O 0.39637 0.72464 0.28666 0.00000
O285 O 0.40365 0.65300 0.36455 0.00000
O286 O 0.40841 0.64118 0.30621 0.00000
O287 O 0.24461 0.60056 0.30328 0.00000
O288 O 0.23649 0.59598 0.36255 0.00000
O289 O 0.32640 0.64958 0.32681 0.00000
Cd290 Cd 0.38310 0.30241 0.29800 0.00000
Cd291 Cd 0.31281 0.36372 0.38432 0.00000
Cd292 Cd 0.32262 0.36857 0.29601 0.00000
Cd293 Cd 0.37329 0.29755 0.38630 0.00000
C294 C 0.29967 0.28820 0.27466 0.00000
C295 C 0.35613 0.33752 0.45077 0.00000
C296 C 0.28810 0.28069 0.38887 0.00000
C297 C 0.37213 0.35770 0.23716 0.00000
C298 C 0.44103 0.33886 0.35265 0.00000
C299 C 0.25934 0.39875 0.33031 0.00000
C300 C 0.36302 0.42449 0.34845 0.00000
C301 C 0.40421 0.23827 0.34638 0.00000
O302 O 0.33446 0.27657 0.27857 0.00000
O303 O 0.29169 0.31868 0.27903 0.00000
O304 O 0.33937 0.35915 0.43352 0.00000
O305 O 0.37271 0.31019 0.44499 0.00000
O306 O 0.27999 0.31630 0.38960 0.00000
O307 O 0.31845 0.27032 0.38840 0.00000
O308 O 0.38924 0.33638 0.25448 0.00000
O309 O 0.34534 0.37584 0.24118 0.00000
O310 O 0.43058 0.32926 0.31886 0.00000
O311 O 0.42470 0.32957 0.37813 0.00000
O312 O 0.26754 0.38460 0.35810 0.00000
O313 O 0.27170 0.40085 0.30057 0.00000
O314 O 0.34678 0.41011 0.37761 0.00000
O315 O 0.35697 0.41367 0.31909 0.00000
O316 O 0.39567 0.25212 0.31854 0.00000
O317 O 0.40207 0.24536 0.37790 0.00000
O318 O 0.34795 0.33306 0.34116 0.00000
Cd319 Cd 0.63996 0.69505 0.69116 0.00000
Cd320 Cd 0.70002 0.60372 0.62604 0.00000
Cd321 Cd 0.69585 0.69306 0.62147 0.00000
Cd322 Cd 0.64413 0.60572 0.69573 0.00000
C323 C 0.72542 0.71314 0.69962 0.00000
C324 C 0.65423 0.53980 0.65522 0.00000
C325 C 0.72978 0.59769 0.70681 0.00000
C326 C 0.65128 0.75537 0.63528 0.00000
C327 C 0.57629 0.64382 0.65908 0.00000
C328 C 0.75448 0.65448 0.58747 0.00000
C329 C 0.64847 0.64290 0.56889 0.00000
C330 C 0.61998 0.64790 0.75643 0.00000
O331 O 0.69134 0.71148 0.71348 0.00000
O332 O 0.73104 0.70820 0.66885 0.00000
O333 O 0.67062 0.55602 0.63256 0.00000
O334 O 0.63994 0.54672 0.68341 0.00000
O335 O 0.73544 0.59638 0.67094 0.00000
O336 O 0.70032 0.60013 0.71912 0.00000
O337 O 0.63452 0.73911 0.65766 0.00000
O338 O 0.67645 0.74959 0.61551 0.00000
O339 O 0.58957 0.67711 0.66776 0.00000
O340 O 0.59143 0.61720 0.66733 0.00000
O341 O 0.74541 0.62713 0.60218 0.00000
O342 O 0.74404 0.68515 0.58608 0.00000
O343 O 0.66361 0.61258 0.58222 0.00000
O344 O 0.65717 0.67202 0.57910 0.00000
O345 O 0.62942 0.67529 0.74200 0.00000
O346 O 0.61953 0.61609 0.74939 0.00000
O347 O 0.66999 0.64939 0.65860 0.00000
Cd348 Cd 0.39081 0.70909 0.71179 0.00000
Cd349 Cd 0.31670 0.64811 0.62601 0.00000
Cd350 Cd 0.32878 0.64310 0.71422 0.00000
Cd351 Cd 0.37873 0.71409 0.62359 0.00000
C352 C 0.30836 0.72352 0.73586 0.00000
C353 C 0.35886 0.67427 0.55923 0.00000
C354 C 0.29389 0.73121 0.62178 0.00000
C355 C 0.38013 0.65375 0.77265 0.00000
C356 C 0.44636 0.67253 0.65660 0.00000
C357 C 0.26385 0.61316 0.68043 0.00000
C358 C 0.36639 0.58713 0.66137 0.00000
C359 C 0.41217 0.77322 0.66331 0.00000
O360 O 0.34332 0.73504 0.73167 0.00000
O361 O 0.29953 0.69306 0.73153 0.00000
O362 O 0.34204 0.65267 0.57660 0.00000
O363 O 0.37626 0.70154 0.56490 0.00000
O364 O 0.28490 0.69563 0.62107 0.00000
O365 O 0.32450 0.74149 0.62200 0.00000
O366 O 0.39729 0.67504 0.75521 0.00000
O367 O 0.35279 0.63569 0.76884 0.00000
O368 O 0.43706 0.68212 0.69049 0.00000
O369 O 0.42958 0.68191 0.63128 0.00000
O370 O 0.27164 0.62733 0.65260 0.00000
O371 O 0.27695 0.61099 0.71006 0.00000
O372 O 0.34972 0.60160 0.63237 0.00000
O373 O 0.36140 0.59793 0.69080 0.00000
O374 O 0.40404 0.75936 0.69120 0.00000
O375 O 0.40900 0.76618 0.63181 0.00000
O376 O 0.35375 0.67860 0.66890 0.00000
Cd377 Cd 0.35864 0.30288 0.70378 0.00000
Cd378 Cd 0.29734 0.39594 0.64353 0.00000
Cd379 Cd 0.29981 0.30662 0.63561 0.00000
Cd380 Cd 0.35617 0.39220 0.71171 0.00000
C381 C 0.27331 0.28601 0.71370 0.00000
C382 C 0.34543 0.45878 0.67388 0.00000
C383 C 0.27121 0.40142 0.72521 0.00000
C384 C 0.34390 0.24345 0.64603 0.00000
C385 C 0.42173 0.35352 0.67201 0.00000
C386 C 0.24041 0.34652 0.60450 0.00000
C387 C 0.34571 0.35670 0.58372 0.00000
C388 C 0.38223 0.34889 0.77023 0.00000
O389 O 0.30800 0.28697 0.72677 0.00000
O390 O 0.26645 0.29142 0.68328 0.00000
O391 O 0.32780 0.44310 0.65106 0.00000
O392 O 0.36082 0.45128 0.70145 0.00000
O393 O 0.26402 0.40326 0.68955 0.00000
O394 O 0.30114 0.39836 0.73668 0.00000
O395 O 0.36189 0.25917 0.66856 0.00000
O396 O 0.31799 0.24987 0.62711 0.00000
O397 O 0.40827 0.32033 0.67980 0.00000
O398 O 0.40740 0.38027 0.68160 0.00000
O399 O 0.25056 0.37355 0.61997 0.00000
O400 O 0.25026 0.31571 0.60173 0.00000
O401 O 0.33167 0.38707 0.59852 0.00000
O402 O 0.33698 0.32758 0.59307 0.00000
O403 O 0.37171 0.32183 0.75504 0.00000
O404 O 0.38290 0.38077 0.76434 0.00000
O405 O 0.32799 0.34941 0.67366 0.00000
Cd406 Cd 0.69791 0.34793 0.68210 0.00000
Cd407 Cd 0.60226 0.28728 0.62002 0.00000
Cd408 Cd 0.69247 0.29198 0.61192 0.00000
Cd409 Cd 0.60770 0.34323 0.69020 0.00000
C410 C 0.71533 0.26371 0.68893 0.00000
C411 C 0.53936 0.33238 0.65223 0.00000
C412 C 0.59879 0.25867 0.70070 0.00000
C413 C 0.75664 0.33659 0.62371 0.00000
C414 C 0.64580 0.41015 0.65274 0.00000
C415 C 0.65136 0.23344 0.57886 0.00000
C416 C 0.64043 0.33790 0.56186 0.00000
C417 C 0.65299 0.36802 0.74945 0.00000
O418 O 0.71465 0.29752 0.70322 0.00000
O419 O 0.70909 0.25781 0.65831 0.00000
O420 O 0.55468 0.31606 0.62876 0.00000
O421 O 0.54763 0.34684 0.68029 0.00000
O422 O 0.59603 0.25271 0.66483 0.00000
O423 O 0.60214 0.28792 0.71322 0.00000
O424 O 0.74127 0.35327 0.64690 0.00000
O425 O 0.74969 0.31148 0.60391 0.00000
O426 O 0.67960 0.39735 0.65995 0.00000
O427 O 0.61897 0.39509 0.66191 0.00000
O428 O 0.62438 0.24236 0.59476 0.00000
O429 O 0.68246 0.24395 0.57635 0.00000
O430 O 0.61007 0.32286 0.57624 0.00000
O431 O 0.67014 0.32961 0.57081 0.00000
O432 O 0.68001 0.35874 0.73382 0.00000
O433 O 0.62057 0.36816 0.74369 0.00000
O434 O 0.65009 0.31761 0.65106 0.00000
Cd435 Cd 0.63524 0.30448 0.30967 0.00000
Cd436 Cd 0.69874 0.39539 0.37509 0.00000
Cd437 Cd 0.69216 0.30608 0.37958 0.00000
Cd438 Cd 0.64181 0.39378 0.30519 0.00000
C439 C 0.72008 0.28588 0.30152 0.00000
C440 C 0.65430 0.45961 0.34578 0.00000
C441 C 0.72752 0.40130 0.29443 0.00000
C442 C 0.64568 0.24405 0.36555 0.00000
C443 C 0.57344 0.35607 0.34156 0.00000
C444 C 0.75233 0.34427 0.41383 0.00000
C445 C 0.64691 0.35649 0.43201 0.00000
C446 C 0.61564 0.35180 0.24436 0.00000
O447 O 0.68585 0.28776 0.28753 0.00000
O448 O 0.72627 0.29076 0.33232 0.00000
O449 O 0.67056 0.44327 0.36849 0.00000
O450 O 0.63942 0.45279 0.31753 0.00000
O451 O 0.73372 0.40255 0.33033 0.00000
O452 O 0.69782 0.39904 0.28201 0.00000
O453 O 0.62906 0.26043 0.34312 0.00000
O454 O 0.67129 0.24967 0.38542 0.00000
O455 O 0.58568 0.32271 0.33290 0.00000
O456 O 0.58920 0.38261 0.33337 0.00000
O457 O 0.74381 0.37169 0.39910 0.00000
O458 O 0.74107 0.31367 0.41516 0.00000
O459 O 0.66270 0.38672 0.41877 0.00000
O460 O 0.65466 0.32732 0.42182 0.00000
O461 O 0.62453 0.32433 0.25881 0.00000
O462 O 0.61617 0.38360 0.25142 0.00000
O463 O 0.66699 0.34993 0.34238 0.00000
H464 H 0.77535 0.22486 0.80338 0.00000
H465 H 0.72645 0.20615 0.70755 0.00000
C466 C 0.72097 0.25758 0.72560 0.00000
C467 C 0.73086 0.28230 0.75339 0.00000
C468 C 0.75086 0.26913 0.78301 0.00000
C469 C 0.76196 0.23308 0.78399 0.00000
C470 C 0.75282 0.20969 0.75588 0.00000
C471 C 0.73233 0.22180 0.72630 0.00000
H472 H 0.73154 0.33867 0.80170 0.00000
H473 H 0.79559 0.26654 0.84512 0.00000
H474 H 0.79278 0.31777 0.88479 0.00000
N475 N 0.75976 0.29332 0.81255 0.00000
C476 C 0.74683 0.32732 0.81784 0.00000
C477 C 0.78198 0.28709 0.84134 0.00000
N478 N 0.75846 0.34260 0.84867 0.00000
C479 C 0.78060 0.31580 0.86298 0.00000
H480 H 0.72441 0.30635 0.75221 0.00000
H481 H 0.76278 0.20479 0.20444 0.00000
H482 H 0.78068 0.28620 0.27532 0.00000
C483 C 0.72702 0.27404 0.26790 0.00000
C484 C 0.70204 0.25025 0.25021 0.00000
C485 C 0.71614 0.22466 0.22569 0.00000
C486 C 0.75384 0.22188 0.22032 0.00000
C487 C 0.77780 0.24484 0.23882 0.00000
C488 C 0.76459 0.27107 0.26293 0.00000
H489 H 0.64112 0.22090 0.21745 0.00000
H490 H 0.72232 0.16328 0.18045 0.00000
H491 H 0.66661 0.14117 0.15361 0.00000
N492 N 0.69114 0.20125 0.20596 0.00000
C493 C 0.65404 0.20389 0.20449 0.00000
C494 C 0.69927 0.17252 0.18435 0.00000
N495 N 0.63822 0.17944 0.18246 0.00000
C496 C 0.66818 0.16016 0.16992 0.00000
H497 H 0.67721 0.25143 0.25456 0.00000
H498 H 0.69100 0.69704 0.25220 0.00000
H499 H 0.76204 0.77936 0.26967 0.00000
C500 C 0.75453 0.76706 0.21700 0.00000
C501 C 0.73475 0.74478 0.19237 0.00000
C502 C 0.71135 0.71790 0.20632 0.00000
C503 C 0.70666 0.71453 0.24339 0.00000
C504 C 0.72558 0.73744 0.26691 0.00000
C505 C 0.74962 0.76405 0.25389 0.00000
H506 H 0.71387 0.70457 0.13333 0.00000
H507 H 0.65534 0.66519 0.21182 0.00000
H508 H 0.64057 0.63215 0.15789 0.00000
N509 N 0.69221 0.69365 0.18185 0.00000
C510 C 0.69763 0.69024 0.14584 0.00000
C511 C 0.66569 0.66887 0.18957 0.00000
N512 N 0.67711 0.66413 0.13043 0.00000
C513 C 0.65735 0.65097 0.15944 0.00000
H514 H 0.73707 0.74772 0.16786 0.00000
H515 H 0.29401 0.73126 0.29171 0.00000
H516 H 0.21727 0.70754 0.21663 0.00000
C517 C 0.22527 0.76126 0.22443 0.00000
C518 C 0.24646 0.78763 0.24325 0.00000
C519 C 0.27186 0.77567 0.26919 0.00000
C520 C 0.27704 0.73877 0.27489 0.00000
C521 C 0.25667 0.71346 0.25530 0.00000
C522 C 0.23066 0.72451 0.22974 0.00000
H523 H 0.26981 0.84982 0.27724 0.00000
H524 H 0.33161 0.77416 0.31771 0.00000
H525 H 0.34837 0.83068 0.34543 0.00000
N526 N 0.29254 0.80203 0.29003 0.00000
C527 C 0.28714 0.83837 0.29116 0.00000
C528 C 0.32086 0.79617 0.31320 0.00000
N529 N 0.30940 0.85578 0.31441 0.00000
C530 C 0.33027 0.82771 0.32812 0.00000
H531 H 0.24375 0.81197 0.23872 0.00000
H532 H 0.20699 0.18358 0.25734 0.00000
H533 H 0.27412 0.26330 0.22455 0.00000
C534 C 0.27671 0.25492 0.27812 0.00000
C535 C 0.26378 0.23298 0.30626 0.00000
C536 C 0.23677 0.20657 0.29790 0.00000
C537 C 0.22443 0.20120 0.26253 0.00000
C538 C 0.23837 0.22237 0.23528 0.00000
C539 C 0.26480 0.24937 0.24283 0.00000
H540 H 0.24242 0.20806 0.37184 0.00000
H541 H 0.19074 0.14507 0.30226 0.00000
H542 H 0.17430 0.12698 0.36150 0.00000
N543 N 0.22180 0.18503 0.32637 0.00000
C544 C 0.22717 0.19024 0.36230 0.00000
C545 C 0.19885 0.15588 0.32343 0.00000
N546 N 0.20819 0.16703 0.38236 0.00000
C547 C 0.19022 0.14576 0.35640 0.00000
H548 H 0.27273 0.23587 0.32943 0.00000
H549 H 0.71217 0.67784 0.75161 0.00000
H550 H 0.77121 0.76656 0.72746 0.00000
C551 C 0.77298 0.75429 0.78026 0.00000
C552 C 0.76163 0.72895 0.80615 0.00000
C553 C 0.73795 0.70057 0.79483 0.00000
C554 C 0.72741 0.69674 0.75876 0.00000
C555 C 0.73982 0.72135 0.73374 0.00000
C556 C 0.76288 0.75032 0.74426 0.00000
H557 H 0.74103 0.69680 0.86875 0.00000
H558 H 0.69881 0.63438 0.79286 0.00000
H559 H 0.68255 0.61003 0.84985 0.00000
N560 N 0.72452 0.67537 0.82101 0.00000
C561 C 0.72813 0.67827 0.85735 0.00000
C562 C 0.70500 0.64428 0.81505 0.00000
N563 N 0.71117 0.65167 0.87487 0.00000
C564 C 0.69648 0.63073 0.84677 0.00000
H565 H 0.76947 0.73093 0.82978 0.00000
H566 H 0.27372 0.83621 0.79956 0.00000
H567 H 0.25314 0.73990 0.75174 0.00000
C568 C 0.30367 0.75982 0.74142 0.00000
C569 C 0.32859 0.78844 0.74908 0.00000
C570 C 0.31640 0.81751 0.77060 0.00000
C571 C 0.28127 0.81717 0.78522 0.00000
C572 C 0.25777 0.78825 0.77814 0.00000
C573 C 0.26884 0.75919 0.75625 0.00000
H574 H 0.38369 0.83885 0.74488 0.00000
H575 H 0.31629 0.87929 0.81586 0.00000
H576 H 0.36615 0.92089 0.80861 0.00000
N577 N 0.34063 0.84790 0.77740 0.00000
C578 C 0.37330 0.85450 0.76133 0.00000
C579 C 0.33568 0.87634 0.80034 0.00000
N580 N 0.38881 0.88585 0.77174 0.00000
C581 C 0.36366 0.89907 0.79646 0.00000
H582 H 0.35215 0.78813 0.74026 0.00000
H583 H 0.24250 0.33357 0.72849 0.00000
H584 H 0.26287 0.23341 0.76406 0.00000
C585 C 0.21636 0.25464 0.78399 0.00000
C586 C 0.19286 0.28474 0.78286 0.00000
C587 C 0.20368 0.31470 0.76221 0.00000
C588 C 0.23588 0.31391 0.74219 0.00000
C589 C 0.25787 0.28362 0.74294 0.00000
C590 C 0.24821 0.25360 0.76378 0.00000
H591 H 0.14327 0.33695 0.80010 0.00000
H592 H 0.20138 0.37942 0.72290 0.00000
H593 H 0.15675 0.42243 0.74156 0.00000
N594 N 0.18113 0.34645 0.76199 0.00000
C595 C 0.15209 0.35327 0.78358 0.00000
C596 C 0.18456 0.37620 0.74103 0.00000
N597 N 0.13761 0.38587 0.77848 0.00000
C598 C 0.15943 0.39973 0.75126 0.00000
H599 H 0.17107 0.28480 0.79528 0.00000
H600 H 0.81446 0.92224 0.81228 0.00000
H601 H 0.86807 0.00276 0.86474 0.00000
C602 C 0.83588 0.02016 0.82412 0.00000
C603 C 0.81026 0.00919 0.79734 0.00000
C604 C 0.80310 0.97184 0.79283 0.00000
C605 C 0.81963 0.94661 0.81528 0.00000
C606 C 0.84382 0.95819 0.84202 0.00000
C607 C 0.85206 0.99516 0.84677 0.00000
H608 H 0.76855 0.00480 0.73598 0.00000
H609 H 0.76894 0.90583 0.77255 0.00000
H610 H 0.73376 0.90640 0.71806 0.00000
N611 N 0.77846 0.95977 0.76457 0.00000
C612 C 0.76431 0.98021 0.73776 0.00000
C613 C 0.76498 0.92578 0.75837 0.00000
N614 N 0.74371 0.96116 0.71430 0.00000
C615 C 0.74516 0.92644 0.72835 0.00000
H616 H 0.79856 0.02598 0.78321 0.00000
H617 H 0.94033 0.17786 0.11933 0.00000
H618 H 0.01734 0.13911 0.18608 0.00000
C619 C 0.03772 0.15700 0.13909 0.00000
C620 C 0.02876 0.17388 0.10633 0.00000
C621 C 0.99154 0.18088 0.09906 0.00000
C622 C 0.96458 0.17283 0.12426 0.00000
C623 C 0.97426 0.15727 0.15662 0.00000
C624 C 0.01100 0.14933 0.16440 0.00000
H625 H 0.02807 0.19561 0.03630 0.00000
H626 H 0.92740 0.21002 0.06873 0.00000
H627 H 0.93119 0.22737 0.00716 0.00000
N628 N 0.98143 0.19645 0.06510 0.00000
C629 C 0.00346 0.20116 0.03620 0.00000
C630 C 0.94806 0.20879 0.05464 0.00000
N631 N 0.98595 0.21459 0.00772 0.00000
C632 C 0.95052 0.21876 0.02061 0.00000
H633 H 0.04673 0.18013 0.09015 0.00000
H634 H 0.90258 0.06925 0.19564 0.00000
H635 H 0.82224 0.02072 0.13759 0.00000
C636 C 0.85902 0.98570 0.15776 0.00000
C637 C 0.89059 0.98262 0.17971 0.00000
C638 C 0.90711 0.01473 0.19320 0.00000
C639 C 0.89171 0.04843 0.18637 0.00000
C640 C 0.86012 0.05059 0.16564 0.00000
C641 C 0.84338 0.01916 0.15125 0.00000
H642 H 0.95492 0.96008 0.20977 0.00000
H643 H 0.95020 0.06306 0.23534 0.00000
H644 H 0.00577 0.03929 0.25937 0.00000
N645 N 0.94035 0.01250 0.21420 0.00000
C646 C 0.96118 0.98264 0.21900 0.00000
C647 C 0.95806 0.03952 0.23271 0.00000
N648 N 0.99156 0.98922 0.23837 0.00000
C649 C 0.98862 0.02600 0.24630 0.00000
H650 H 0.90013 0.96026 0.18506 0.00000
H651 H 0.03964 0.82086 0.18545 0.00000
H652 H 0.96594 0.84498 0.10866 0.00000
C653 C 0.94327 0.83640 0.15725 0.00000
C654 C 0.95091 0.82898 0.19372 0.00000
C655 C 0.98759 0.82244 0.20369 0.00000
C656 C 0.01568 0.82486 0.17853 0.00000
C657 C 0.00754 0.83324 0.14317 0.00000
C658 C 0.97120 0.83924 0.13223 0.00000
H659 H 0.94642 0.80578 0.26310 0.00000
H660 H 0.05177 0.81435 0.24543 0.00000
H661 H 0.04320 0.79351 0.30539 0.00000
N662 N 0.99593 0.81306 0.24033 0.00000
C663 C 0.97149 0.80487 0.26646 0.00000
C664 C 0.02949 0.80970 0.25608 0.00000
N665 N 0.98737 0.79539 0.29739 0.00000
C666 C 0.02446 0.79855 0.28944 0.00000
H667 H 0.93245 0.82842 0.21053 0.00000
H668 H 0.19294 0.91394 0.17572 0.00000
H669 H 0.12325 0.97926 0.12396 0.00000
C670 C 0.15934 0.00624 0.15621 0.00000
C671 C 0.18990 0.00238 0.17938 0.00000
C672 C 0.20172 0.96707 0.18699 0.00000
C673 C 0.18473 0.93691 0.17079 0.00000
C674 C 0.15551 0.94153 0.14735 0.00000
C675 C 0.14263 0.97632 0.13973 0.00000
H676 H 0.24101 0.01220 0.23290 0.00000
H677 H 0.24564 0.90886 0.20885 0.00000
H678 H 0.28872 0.92179 0.25616 0.00000
N679 N 0.23168 0.96227 0.21190 0.00000
C680 C 0.24757 0.98815 0.23334 0.00000
C681 C 0.24959 0.93119 0.21970 0.00000
N682 N 0.27357 0.97528 0.25505 0.00000
C683 C 0.27372 0.93869 0.24565 0.00000
H684 H 0.20176 0.02238 0.18925 0.00000
H685 H 0.09199 0.87776 0.81500 0.00000
H686 H 0.02102 0.83488 0.88514 0.00000
C687 C 0.99633 0.86073 0.84409 0.00000
C688 C 0.00240 0.87927 0.81164 0.00000
C689 C 0.03893 0.88609 0.80149 0.00000
C690 C 0.06819 0.87342 0.82210 0.00000
C691 C 0.06144 0.85438 0.85324 0.00000
C692 C 0.02537 0.84773 0.86445 0.00000
H693 H 0.99613 0.92451 0.75432 0.00000
H694 H 0.10085 0.90290 0.75984 0.00000
H695 H 0.09087 0.94309 0.71093 0.00000
N696 N 0.04591 0.90649 0.76945 0.00000
C697 C 0.02090 0.92466 0.74949 0.00000
C698 C 0.07858 0.91245 0.75310 0.00000
N699 N 0.03576 0.94271 0.72224 0.00000
C700 C 0.07273 0.93440 0.72576 0.00000
H701 H 0.98303 0.88672 0.79751 0.00000
H702 H 0.13058 0.79154 0.04880 0.00000
H703 H 0.17849 0.87485 0.99823 0.00000
C704 C 0.16025 0.83533 0.96435 0.00000
C705 C 0.14121 0.80189 0.96221 0.00000
C706 C 0.13086 0.78539 0.99463 0.00000
C707 C 0.13780 0.80246 0.02777 0.00000
C708 C 0.15555 0.83575 0.02903 0.00000
C709 C 0.16682 0.85258 0.99726 0.00000
H710 H 0.11649 0.73473 0.94125 0.00000
H711 H 0.09511 0.74033 0.04423 0.00000
H712 H 0.07550 0.68237 0.02180 0.00000
N713 N 0.11301 0.75045 0.99331 0.00000
C714 C 0.10891 0.72841 0.96398 0.00000
C715 C 0.09746 0.73205 0.02084 0.00000
N716 N 0.09282 0.69676 0.97134 0.00000
C717 C 0.08627 0.70012 0.00807 0.00000
H718 H 0.13572 0.79114 0.94024 0.00000
H719 H 0.78652 0.16166 0.94488 0.00000
H720 H 0.87728 0.13845 0.00172 0.00000
C721 C 0.84057 0.16762 0.02990 0.00000
C722 C 0.80536 0.18309 0.02873 0.00000
C723 C 0.78564 0.18116 0.99597 0.00000
C724 C 0.79985 0.16304 0.96608 0.00000
C725 C 0.83398 0.14718 0.96829 0.00000
C726 C 0.85462 0.14921 0.00010 0.00000
H727 H 0.74624 0.22642 0.04016 0.00000
H728 H 0.72763 0.18207 0.94542 0.00000
H729 H 0.67819 0.22162 0.95919 0.00000
N730 N 0.75043 0.19825 0.99351 0.00000
C731 C 0.73530 0.22082 0.01827 0.00000
C732 C 0.72565 0.19612 0.96601 0.00000
N733 N 0.70308 0.23405 0.00776 0.00000
C734 C 0.69812 0.21779 0.97405 0.00000
H735 H 0.79557 0.19415 0.04881 0.00000
H736 H 0.87339 0.88483 0.06326 0.00000
H737 H 0.82022 0.82435 0.98846 0.00000
C738 C 0.85306 0.86283 0.96735 0.00000
C739 C 0.87882 0.89053 0.97569 0.00000
C740 C 0.88557 0.89893 0.01226 0.00000
C741 C 0.86849 0.87930 0.03940 0.00000
C742 C 0.84416 0.85156 0.03046 0.00000
C743 C 0.83633 0.84297 0.99428 0.00000
H744 H 0.92113 0.95196 0.97407 0.00000
H745 H 0.91912 0.92589 0.07586 0.00000
H746 H 0.95488 0.97998 0.06997 0.00000
N747 N 0.91036 0.92823 0.02152 0.00000
C748 C 0.92504 0.95275 0.99864 0.00000
C749 C 0.92347 0.93791 0.05466 0.00000
N750 N 0.94566 0.97802 0.01526 0.00000
C751 C 0.94363 0.96767 0.05109 0.00000
H752 H 0.89088 0.90277 0.95773 0.00000
H753 H 0.10347 0.12697 0.05822 0.00000
H754 H 0.18307 0.17094 0.99826 0.00000
C755 C 0.14163 0.14889 0.96871 0.00000
C756 C 0.10699 0.13163 0.97047 0.00000
C757 C 0.09337 0.12289 0.00469 0.00000
C758 C 0.11284 0.13253 0.03595 0.00000
C759 C 0.14623 0.15040 0.03347 0.00000
C760 C 0.16088 0.15888 0.99990 0.00000
H761 H 0.04631 0.08984 0.95584 0.00000
H762 H 0.04513 0.10406 0.06041 0.00000
H763 H 0.99361 0.06714 0.04325 0.00000
N764 N 0.05895 0.10370 0.00720 0.00000
C765 C 0.03945 0.08827 0.97962 0.00000
C766 C 0.03941 0.09638 0.03729 0.00000
N767 N 0.00943 0.07065 0.99038 0.00000
C768 C 0.01066 0.07627 0.02748 0.00000
H769 H 0.09368 0.12621 0.94983 0.00000
H770 H 0.62640 0.69863 0.44026 0.00000
H771 H 0.67470 0.62755 0.50600 0.00000
C772 C 0.64534 0.66538 0.53239 0.00000
C773 C 0.62196 0.69526 0.52804 0.00000
C774 C 0.61574 0.70789 0.49289 0.00000
C775 C 0.63095 0.69031 0.46317 0.00000
C776 C 0.65291 0.66042 0.46813 0.00000
C777 C 0.66019 0.64758 0.50284 0.00000
H778 H 0.58500 0.75848 0.53817 0.00000
H779 H 0.58421 0.74339 0.43368 0.00000
H780 H 0.55318 0.79850 0.44701 0.00000
N781 N 0.59346 0.73939 0.48783 0.00000
C782 C 0.58103 0.76211 0.51392 0.00000
C783 C 0.58102 0.75330 0.45634 0.00000
N784 N 0.56252 0.79016 0.50096 0.00000
C785 C 0.56347 0.78361 0.46401 0.00000
H786 H 0.61108 0.70620 0.54762 0.00000
H787 H 0.34472 0.62007 0.56801 0.00000
H788 H 0.36245 0.68246 0.48194 0.00000
C789 C 0.33942 0.63394 0.46932 0.00000
C790 C 0.32519 0.60153 0.48366 0.00000
C791 C 0.32816 0.59652 0.52110 0.00000
C792 C 0.34324 0.62353 0.54349 0.00000
C793 C 0.35600 0.65549 0.52883 0.00000
C794 C 0.35406 0.66105 0.49156 0.00000
H795 H 0.30386 0.53116 0.49300 0.00000
H796 H 0.31658 0.56994 0.59090 0.00000
H797 H 0.29838 0.50780 0.59448 0.00000
N798 N 0.31550 0.56298 0.53623 0.00000
C799 C 0.30496 0.53257 0.51780 0.00000
C800 C 0.31224 0.55451 0.57157 0.00000
N801 N 0.29636 0.50500 0.53916 0.00000
C802 C 0.30172 0.52014 0.57331 0.00000
H803 H 0.31428 0.58415 0.46895 0.00000
H804 H 0.37542 0.38644 0.58214 0.00000
H805 H 0.32627 0.32387 0.50641 0.00000
C806 C 0.36235 0.35994 0.48615 0.00000
C807 C 0.38845 0.38713 0.49517 0.00000
C808 C 0.39243 0.39728 0.53169 0.00000
C809 C 0.37232 0.37979 0.55827 0.00000
C810 C 0.34770 0.35248 0.54879 0.00000
C811 C 0.34259 0.34220 0.51258 0.00000
H812 H 0.43325 0.44684 0.49391 0.00000
H813 H 0.42160 0.42649 0.59637 0.00000
H814 H 0.45994 0.47888 0.59070 0.00000
N815 N 0.41755 0.42615 0.54145 0.00000
C816 C 0.43511 0.44884 0.51864 0.00000
C817 C 0.42821 0.43717 0.57502 0.00000
N818 N 0.45528 0.47424 0.53560 0.00000
C819 C 0.44981 0.46595 0.57161 0.00000
H820 H 0.40247 0.39794 0.47767 0.00000
H821 H 0.44999 0.61158 0.67903 0.00000
H822 H 0.52004 0.68988 0.64871 0.00000
C823 C 0.54435 0.64171 0.65656 0.00000
C824 C 0.53808 0.60503 0.66510 0.00000
C825 C 0.50219 0.59435 0.67426 0.00000
C826 C 0.47344 0.61898 0.67331 0.00000
C827 C 0.48016 0.65453 0.66381 0.00000
C828 C 0.51572 0.66620 0.65519 0.00000
H829 H 0.54575 0.53585 0.68907 0.00000
H830 H 0.43972 0.55115 0.68739 0.00000
H831 H 0.45109 0.49149 0.70857 0.00000
N832 N 0.49536 0.55752 0.68479 0.00000
C833 C 0.52090 0.53195 0.69173 0.00000
C834 C 0.46251 0.54102 0.69069 0.00000
N835 N 0.50643 0.50070 0.70277 0.00000
C836 C 0.46905 0.50782 0.70202 0.00000
H837 H 0.55691 0.58855 0.66471 0.00000
H838 H 0.36582 0.46404 0.61645 0.00000
H839 H 0.34727 0.53051 0.70056 0.00000
C840 C 0.36856 0.55610 0.65768 0.00000
C841 C 0.37979 0.55158 0.62165 0.00000
C842 C 0.37923 0.51629 0.60678 0.00000
C843 C 0.36638 0.48697 0.62660 0.00000
C844 C 0.35452 0.49234 0.66152 0.00000
C845 C 0.35536 0.52704 0.67734 0.00000
H846 H 0.41439 0.55884 0.55719 0.00000
H847 H 0.37885 0.45844 0.55664 0.00000
H848 H 0.41061 0.46899 0.50177 0.00000
N849 N 0.39223 0.51064 0.57070 0.00000
C850 C 0.41000 0.53517 0.55000 0.00000
C851 C 0.39023 0.47984 0.55032 0.00000
N852 N 0.42044 0.52161 0.51830 0.00000
C853 C 0.40752 0.48607 0.51978 0.00000
H854 H 0.38728 0.57113 0.60825 0.00000
H855 H 0.53979 0.38371 0.63053 0.00000
H856 H 0.46784 0.30751 0.66180 0.00000
C857 C 0.44546 0.35699 0.65678 0.00000
C858 C 0.45238 0.39310 0.64656 0.00000
C859 C 0.48853 0.40283 0.63741 0.00000
C860 C 0.51629 0.37709 0.63690 0.00000
C861 C 0.50852 0.34163 0.64601 0.00000
C862 C 0.47293 0.33121 0.65591 0.00000
H863 H 0.45040 0.46671 0.64051 0.00000
H864 H 0.54891 0.44074 0.60899 0.00000
H865 H 0.54300 0.50496 0.60583 0.00000
N866 N 0.49673 0.43987 0.62859 0.00000
C867 C 0.47422 0.46870 0.63257 0.00000
C868 C 0.52847 0.45376 0.61538 0.00000
N869 N 0.49003 0.50011 0.62385 0.00000
C870 C 0.52480 0.48932 0.61331 0.00000
H871 H 0.43378 0.40983 0.64590 0.00000
H872 H 0.63146 0.41203 0.59528 0.00000
H873 H 0.67116 0.47925 0.67235 0.00000
C874 C 0.64734 0.50527 0.63092 0.00000
C875 C 0.62795 0.50047 0.59813 0.00000
C876 C 0.62288 0.46490 0.58473 0.00000
C877 C 0.63524 0.43522 0.60417 0.00000
C878 C 0.65322 0.44065 0.63677 0.00000
C879 C 0.65931 0.47578 0.65053 0.00000
H880 H 0.59962 0.50964 0.53057 0.00000
H881 H 0.59533 0.40487 0.54512 0.00000
H882 H 0.57187 0.41737 0.48642 0.00000
N883 N 0.60478 0.45933 0.55049 0.00000
C884 C 0.59578 0.48521 0.52638 0.00000
C885 C 0.59377 0.42748 0.53494 0.00000
N886 N 0.58087 0.47174 0.49607 0.00000
C887 C 0.58040 0.43471 0.50259 0.00000
H888 H 0.61887 0.52005 0.58583 0.00000
H889 H 0.44297 0.35444 0.39431 0.00000
H890 H 0.51708 0.34988 0.31510 0.00000
C891 C 0.53984 0.35093 0.36485 0.00000
C892 C 0.53224 0.35101 0.40204 0.00000
C893 C 0.49532 0.35310 0.41263 0.00000
C894 C 0.46707 0.35342 0.38704 0.00000
C895 C 0.47525 0.35223 0.35075 0.00000
C896 C 0.51178 0.35083 0.33932 0.00000
H897 H 0.53616 0.36134 0.47492 0.00000
H898 H 0.43130 0.34903 0.45432 0.00000
H899 H 0.43932 0.35905 0.51753 0.00000
N900 N 0.48689 0.35502 0.45038 0.00000
C901 C 0.51112 0.35992 0.47803 0.00000
C902 C 0.45339 0.35316 0.46604 0.00000
N903 N 0.49507 0.36246 0.51010 0.00000
C904 C 0.45813 0.35831 0.50112 0.00000
H905 H 0.55089 0.34975 0.41891 0.00000
H906 H 0.69569 0.57954 0.31729 0.00000
H907 H 0.62584 0.51858 0.37429 0.00000
C908 C 0.66137 0.48916 0.34490 0.00000
C909 C 0.69174 0.49119 0.32171 0.00000
C910 C 0.70384 0.52575 0.31099 0.00000
C911 C 0.68730 0.55705 0.32424 0.00000
C912 C 0.65825 0.55430 0.34779 0.00000
C913 C 0.64510 0.52026 0.35846 0.00000
H914 H 0.74225 0.47704 0.26968 0.00000
H915 H 0.74813 0.58211 0.28424 0.00000
H916 H 0.79063 0.56535 0.23862 0.00000
N917 N 0.73362 0.52855 0.28597 0.00000
C918 C 0.74905 0.50100 0.26709 0.00000
C919 C 0.75175 0.55894 0.27550 0.00000
N920 N 0.77497 0.51207 0.24449 0.00000
C921 C 0.77557 0.54934 0.25052 0.00000
H922 H 0.70332 0.47052 0.31379 0.00000
H923 H 0.52763 0.65663 0.40069 0.00000
H924 H 0.48133 0.64387 0.30279 0.00000
C925 C 0.44537 0.63864 0.34345 0.00000
C926 C 0.44131 0.64074 0.38116 0.00000
C927 C 0.47300 0.64686 0.40241 0.00000
C928 C 0.50712 0.65230 0.38650 0.00000
C929 C 0.51014 0.65116 0.34940 0.00000
C930 C 0.47920 0.64445 0.32750 0.00000
H931 H 0.41794 0.63090 0.45005 0.00000
H932 H 0.51934 0.66529 0.46103 0.00000
H933 H 0.49498 0.65472 0.51946 0.00000
N934 N 0.46993 0.64737 0.44102 0.00000
C935 C 0.44006 0.63775 0.46042 0.00000
C936 C 0.49608 0.65666 0.46584 0.00000
N937 N 0.44593 0.63922 0.49592 0.00000
C938 C 0.48221 0.65113 0.49816 0.00000
H939 H 0.41858 0.63818 0.39159 0.00000
H940 H 0.29794 0.54774 0.35370 0.00000
H941 H 0.38566 0.49062 0.32306 0.00000
C942 C 0.34610 0.46001 0.34567 0.00000
C943 C 0.31046 0.46049 0.36016 0.00000
C944 C 0.29299 0.49418 0.36364 0.00000
C945 C 0.30980 0.52588 0.35159 0.00000
C946 C 0.34431 0.52448 0.33651 0.00000
C947 C 0.36274 0.49144 0.33328 0.00000
H948 H 0.24910 0.44539 0.39909 0.00000
H949 H 0.23837 0.54691 0.37213 0.00000
H950 H 0.18665 0.52959 0.40718 0.00000
N951 N 0.25738 0.49570 0.37995 0.00000
C952 C 0.23982 0.46845 0.39725 0.00000
C953 C 0.23452 0.52446 0.38216 0.00000
N954 N 0.20786 0.47839 0.41129 0.00000
C955 C 0.20572 0.51450 0.40127 0.00000
H956 H 0.29896 0.43938 0.36716 0.00000
H957 H 0.59776 0.34116 0.43632 0.00000
H958 H 0.68307 0.34875 0.50521 0.00000
C959 C 0.63495 0.33802 0.52954 0.00000
C960 C 0.59729 0.33080 0.52361 0.00000
C961 C 0.58362 0.33286 0.48812 0.00000
C962 C 0.60698 0.34022 0.45950 0.00000
C963 C 0.64399 0.34614 0.46594 0.00000
C964 C 0.65836 0.34495 0.50107 0.00000
H965 H 0.52301 0.32547 0.53114 0.00000
H966 H 0.53806 0.32404 0.42694 0.00000
H967 H 0.47378 0.32017 0.43806 0.00000
N968 N 0.54500 0.32736 0.48154 0.00000
C969 C 0.51831 0.32493 0.50669 0.00000
C970 C 0.52725 0.32430 0.44930 0.00000
N971 N 0.48468 0.32170 0.49249 0.00000
C972 C 0.49166 0.32173 0.45573 0.00000
H973 H 0.58208 0.32491 0.54242 0.00000
H974 H 0.12471 0.96366 0.88546 0.00000
H975 H 0.19257 0.03591 0.84007 0.00000
C976 C 0.14750 0.05853 0.86161 0.00000
C977 C 0.11536 0.05149 0.88134 0.00000
C978 C 0.10685 0.01521 0.88947 0.00000
C979 C 0.13040 0.98728 0.87969 0.00000
C980 C 0.16228 0.99506 0.86128 0.00000
C981 C 0.17121 0.03084 0.85219 0.00000
H982 H 0.04631 0.05448 0.90902 0.00000
H983 H 0.07563 0.95377 0.92195 0.00000
H984 H 0.01498 0.96071 0.94448 0.00000
N985 N 0.07334 0.00708 0.90802 0.00000
C986 C 0.04553 0.03028 0.91489 0.00000
C987 C 0.06224 0.97482 0.92166 0.00000
N988 N 0.01703 0.01455 0.93096 0.00000
C989 C 0.02877 0.97903 0.93448 0.00000
H990 H 0.10037 0.07009 0.88869 0.00000
H991 H 0.05123 0.11717 0.82561 0.00000
H992 H 0.96251 0.17266 0.85645 0.00000
C993 C 0.95042 0.12981 0.82404 0.00000
C994 C 0.96530 0.09985 0.80553 0.00000
C995 C 0.00369 0.09599 0.80587 0.00000
C996 C 0.02615 0.12018 0.82531 0.00000
C997 C 0.01075 0.14871 0.84410 0.00000
C998 C 0.97266 0.15370 0.84375 0.00000
H999 H 0.97743 0.04504 0.75718 0.00000
H1000 H 0.07395 0.06561 0.80005 0.00000
H1001 H 0.08009 0.01821 0.75630 0.00000
N1002 N 0.01973 0.06669 0.78576 0.00000
C1003 C 0.00228 0.04417 0.76188 0.00000
C1004 C 0.05529 0.05604 0.78582 0.00000
N1005 N 0.02468 0.02070 0.74592 0.00000
C1006 C 0.05836 0.02947 0.76180 0.00000
H1007 H 0.95035 0.08330 0.79355 0.00000
loop_
_geom_bond_atom_site_label_1
_geom_bond_atom_site_label_2
_geom_bond_distance
_geom_bond_site_symmetry_2
_ccdc_geom_bond_type
Cd0 O12 2.139 . S
Cd0 O18 2.087 . S
Cd0 O20 2.139 . S
Cd0 O26 2.087 . S
Cd0 O28 2.368 . S
Cd1 O14 2.087 . S
Cd1 O16 2.139 . S
Cd1 O22 2.087 . S
Cd1 O24 2.139 . S
Cd1 O28 2.368 . S
Cd2 O13 2.249 . S
Cd2 O19 2.242 . S
Cd2 O23 2.242 . S
Cd2 O25 2.249 . S
Cd2 O28 2.350 . S
Cd3 O15 2.242 . S
Cd3 O17 2.249 . S
Cd3 O21 2.249 . S
Cd3 O27 2.242 . S
Cd3 O28 2.350 . S
C4 O12 1.362 . A
C4 O13 1.185 . A
C5 O14 1.209 . A
C5 O15 1.210 . A
C6 O16 1.362 . A
C6 O17 1.185 . A
C7 O18 1.209 . A
C7 O19 1.210 . A
C8 O20 1.361 . A
C8 O21 1.185 . A
C9 O22 1.209 . A
C9 O23 1.210 . A
C10 O24 1.361 . A
C10 O25 1.185 . A
C11 O26 1.209 . A
C11 O27 1.210 . A
Cd29 O41 2.139 . S
Cd29 O47 2.087 . S
Cd29 O49 2.139 . S
Cd29 O55 2.087 . S
Cd29 O57 2.368 . S
Cd30 O43 2.087 . S
Cd30 O45 2.139 . S
Cd30 O51 2.087 . S
Cd30 O53 2.139 . S
Cd30 O57 2.368 . S
Cd31 O42 2.249 . S
Cd31 O48 2.242 . S
Cd31 O52 2.242 . S
Cd31 O54 2.249 . S
Cd31 O57 2.350 . S
Cd32 O44 2.242 . S
Cd32 O46 2.249 . S
Cd32 O50 2.249 . S
Cd32 O56 2.242 . S
Cd32 O57 2.350 . S
C33 O41 1.362 . A
C33 O42 1.185 . A
C34 O43 1.209 . A
C34 O44 1.210 . A
C35 O45 1.362 . A
C35 O46 1.185 . A
C36 O47 1.209 . A
C36 O48 1.210 . A
C37 O49 1.361 . A
C37 O50 1.185 . A
C38 O51 1.209 . A
C38 O52 1.210 . A
C39 O53 1.361 . A
C39 O54 1.185 . A
C40 O55 1.209 . A
C40 O56 1.210 . A
Cd58 O70 2.139 . S
Cd58 O76 2.087 . S
Cd58 O78 2.139 . S
Cd58 O84 2.087 . S
Cd58 O86 2.368 . S
Cd59 O72 2.087 . S
Cd59 O74 2.139 . S
Cd59 O80 2.087 . S
Cd59 O82 2.139 . S
Cd59 O86 2.368 . S
Cd60 O71 2.249 . S
Cd60 O77 2.242 . S
Cd60 O81 2.242 . S
Cd60 O83 2.249 . S
Cd60 O86 2.350 . S
Cd61 O73 2.242 . S
Cd61 O75 2.249 . S
Cd61 O79 2.249 . S
Cd61 O85 2.242 . S
Cd61 O86 2.350 . S
C62 O70 1.362 . A
C62 O71 1.185 . A
C63 O72 1.209 . A
C63 O73 1.210 . A
C64 O74 1.362 . A
C64 O75 1.185 . A
C65 O76 1.209 . A
C65 O77 1.210 . A
C66 O78 1.361 . A
C66 O79 1.185 . A
C67 O80 1.209 . A
C67 O81 1.210 . A
C68 O82 1.361 . A
C68 O83 1.185 . A
C69 O84 1.209 . A
C69 O85 1.210 . A
Cd87 O99 2.139 . S
Cd87 O105 2.087 . S
Cd87 O107 2.139 . S
Cd87 O113 2.087 . S
Cd87 O115 2.368 . S
Cd88 O101 2.087 . S
Cd88 O103 2.139 . S
Cd88 O109 2.087 . S
Cd88 O111 2.139 . S
Cd88 O115 2.368 . S
Cd89 O100 2.249 . S
Cd89 O106 2.242 . S
Cd89 O110 2.242 . S
Cd89 O112 2.249 . S
Cd89 O115 2.350 . S
Cd90 O102 2.242 . S
Cd90 O104 2.249 . S
Cd90 O108 2.249 . S
Cd90 O114 2.242 . S
Cd90 O115 2.350 . S
C91 O99 1.362 . A
C91 O100 1.185 . A
C92 O101 1.209 . A
C92 O102 1.210 . A
C93 O103 1.362 . A
C93 O104 1.185 . A
C94 O105 1.209 . A
C94 O106 1.210 . A
C95 O107 1.361 . A
C95 O108 1.185 . A
C96 O109 1.209 . A
C96 O110 1.210 . A
C97 O111 1.361 . A
C97 O112 1.185 . A
C98 O113 1.209 . A
C98 O114 1.210 . A
Cd116 O128 2.139 . S
Cd116 O134 2.087 . S
Cd116 O136 2.139 . S
Cd116 O142 2.087 . S
Cd116 O144 2.368 . S
Cd117 O130 2.087 . S
Cd117 O132 2.139 . S
Cd117 O138 2.087 . S
Cd117 O140 2.139 . S
Cd117 O144 2.368 . S
Cd118 O129 2.249 . S
Cd118 O135 2.242 . S
Cd118 O139 2.242 . S
Cd118 O141 2.249 . S
Cd118 O144 2.350 . S
Cd119 O131 2.242 . S
Cd119 O133 2.249 . S
Cd119 O137 2.249 . S
Cd119 O143 2.242 . S
Cd119 O144 2.350 . S
C120 O128 1.362 . A
C120 O129 1.185 . A
C121 O130 1.209 . A
C121 O131 1.210 . A
C122 O132 1.362 . A
C122 O133 1.185 . A
C123 O134 1.209 . A
C123 O135 1.210 . A
C124 O136 1.361 . A
C124 O137 1.185 . A
C125 O138 1.209 . A
C125 O139 1.210 . A
C126 O140 1.361 . A
C126 O141 1.185 . A
C127 O142 1.209 . A
C127 O143 1.210 . A
Cd145 O157 2.139 . S
Cd145 O163 2.087 . S
Cd145 O165 2.139 . S
Cd145 O171 2.087 . S
Cd145 O173 2.368 . S
Cd146 O159 2.087 . S
Cd146 O161 2.139 . S
Cd146 O167 2.087 . S
Cd146 O169 2.139 . S
Cd146 O173 2.368 . S
Cd147 O158 2.249 . S
Cd147 O164 2.242 . S
Cd147 O168 2.242 . S
Cd147 O170 2.249 . S
Cd147 O173 2.350 . S
Cd148 O160 2.242 . S
Cd148 O162 2.249 . S
Cd148 O166 2.249 . S
Cd148 O172 2.242 . S
Cd148 O173 2.350 . S
C149 O157 1.362 . A
C149 O158 1.185 . A
C150 O159 1.209 . A
C150 O160 1.210 . A
C151 O161 1.362 . A
C151 O162 1.185 . A
C152 O163 1.209 . A
C152 O164 1.210 . A
C153 O165 1.361 . A
C153 O166 1.185 . A
C154 O167 1.209 . A
C154 O168 1.210 . A
C155 O169 1.361 . A
C155 O170 1.185 . A
C156 O171 1.209 . A
C156 O172 1.210 . A
Cd174 O186 2.139 . S
Cd174 O192 2.087 . S
Cd174 O194 2.139 . S
Cd174 O200 2.087 . S
Cd174 O202 2.368 . S
Cd175 O188 2.087 . S
Cd175 O190 2.139 . S
Cd175 O196 2.087 . S
Cd175 O198 2.139 . S
Cd175 O202 2.368 . S
Cd176 O187 2.249 . S
Cd176 O193 2.242 . S
Cd176 O197 2.242 . S
Cd176 O199 2.249 . S
Cd176 O202 2.350 . S
Cd177 O189 2.242 . S
Cd177 O191 2.249 . S
Cd177 O195 2.249 . S
Cd177 O201 2.242 . S
Cd177 O202 2.350 . S
C178 O186 1.362 . A
C178 O187 1.185 . A
C179 O188 1.209 . A
C179 O189 1.210 . A
C180 O190 1.362 . A
C180 O191 1.185 . A
C181 O192 1.209 . A
C181 O193 1.210 . A
C182 O194 1.361 . A
C182 O195 1.185 . A
C183 O196 1.209 . A
C183 O197 1.210 . A
C184 O198 1.361 . A
C184 O199 1.185 . A
C185 O200 1.209 . A
C185 O201 1.210 . A
Cd203 O215 2.139 . S
Cd203 O221 2.087 . S
Cd203 O223 2.139 . S
Cd203 O229 2.087 . S
Cd203 O231 2.368 . S
Cd204 O217 2.087 . S
Cd204 O219 2.139 . S
Cd204 O225 2.087 . S
Cd204 O227 2.139 . S
Cd204 O231 2.368 . S
Cd205 O216 2.249 . S
Cd205 O222 2.242 . S
Cd205 O226 2.242 . S
Cd205 O228 2.249 . S
Cd205 O231 2.350 . S
Cd206 O218 2.242 . S
Cd206 O220 2.249 . S
Cd206 O224 2.249 . S
Cd206 O230 2.242 . S
Cd206 O231 2.350 . S
C207 O215 1.362 . A
C207 O216 1.185 . A
C208 O217 1.209 . A
C208 O218 1.210 . A
C209 O219 1.362 . A
C209 O220 1.185 . A
C210 O221 1.209 . A
C210 O222 1.210 . A
C211 O223 1.361 . A
C211 O224 1.185 . A
C212 O225 1.209 . A
C212 O226 1.210 . A
C213 O227 1.361 . A
C213 O228 1.185 . A
C214 O229 1.209 . A
C214 O230 1.210 . A
Cd232 O244 2.139 . S
Cd232 O250 2.087 . S
Cd232 O252 2.139 . S
Cd232 O258 2.087 . S
Cd232 O260 2.368 . S
Cd233 O246 2.087 . S
Cd233 O248 2.139 . S
Cd233 O254 2.087 . S
Cd233 O256 2.139 . S
Cd233 O260 2.368 . S
Cd234 O245 2.249 . S
Cd234 O251 2.242 . S
Cd234 O255 2.242 . S
Cd234 O257 2.249 . S
Cd234 O260 2.350 . S
Cd235 O247 2.242 . S
Cd235 O249 2.249 . S
Cd235 O253 2.249 . S
Cd235 O259 2.242 . S
Cd235 O260 2.350 . S
C236 O244 1.362 . A
C236 O245 1.185 . A
C237 O246 1.209 . A
C237 O247 1.210 . A
C238 O248 1.362 . A
C238 O249 1.185 . A
C239 O250 1.209 . A
C239 O251 1.210 . A
C240 O252 1.361 . A
C240 O253 1.185 . A
C241 O254 1.209 . A
C241 O255 1.210 . A
C242 O256 1.361 . A
C242 O257 1.185 . A
C243 O258 1.209 . A
C243 O259 1.210 . A
Cd261 O273 2.139 . S
Cd261 O279 2.087 . S
Cd261 O281 2.139 . S
Cd261 O287 2.087 . S
Cd261 O289 2.368 . S
Cd262 O275 2.087 . S
Cd262 O277 2.139 . S
Cd262 O283 2.087 . S
Cd262 O285 2.139 . S
Cd262 O289 2.368 . S
Cd263 O274 2.249 . S
Cd263 O280 2.242 . S
Cd263 O284 2.242 . S
Cd263 O286 2.249 . S
Cd263 O289 2.350 . S
Cd264 O276 2.242 . S
Cd264 O278 2.249 . S
Cd264 O282 2.249 . S
Cd264 O288 2.242 . S
Cd264 O289 2.350 . S
C265 O273 1.362 . A
C265 O274 1.185 . A
C266 O275 1.209 . A
C266 O276 1.210 . A
C267 O277 1.362 . A
C267 O278 1.185 . A
C268 O279 1.209 . A
C268 O280 1.210 . A
C269 O281 1.361 . A
C269 O282 1.185 . A
C270 O283 1.209 . A
C270 O284 1.210 . A
C271 O285 1.361 . A
C271 O286 1.185 . A
C272 O287 1.209 . A
C272 O288 1.210 . A
Cd290 O302 2.139 . S
Cd290 O308 2.087 . S
Cd290 O310 2.139 . S
Cd290 O316 2.087 . S
Cd290 O318 2.368 . S
Cd291 O304 2.087 . S
Cd291 O306 2.139 . S
Cd291 O312 2.087 . S
Cd291 O314 2.139 . S
Cd291 O318 2.368 . S
Cd292 O303 2.249 . S
Cd292 O309 2.242 . S
Cd292 O313 2.242 . S
Cd292 O315 2.249 . S
Cd292 O318 2.350 . S
Cd293 O305 2.242 . S
Cd293 O307 2.249 . S
Cd293 O311 2.249 . S
Cd293 O317 2.242 . S
Cd293 O318 2.350 . S
C294 O302 1.362 . A
C294 O303 1.185 . A
C295 O304 1.209 . A
C295 O305 1.210 . A
C296 O306 1.362 . A
C296 O307 1.185 . A
C297 O308 1.209 . A
C297 O309 1.210 . A
C298 O310 1.361 . A
C298 O311 1.185 . A
C299 O312 1.209 . A
C299 O313 1.210 . A
C300 O314 1.361 . A
C300 O315 1.185 . A
C301 O316 1.209 . A
C301 O317 1.210 . A
Cd319 O331 2.139 . S
Cd319 O337 2.087 . S
Cd319 O339 2.139 . S
Cd319 O345 2.087 . S
Cd319 O347 2.368 . S
Cd320 O333 2.087 . S
Cd320 O335 2.139 . S
Cd320 O341 2.087 . S
Cd320 O343 2.139 . S
Cd320 O347 2.368 . S
Cd321 O332 2.249 . S
Cd321 O338 2.242 . S
Cd321 O342 2.242 . S
Cd321 O344 2.249 . S
Cd321 O347 2.350 . S
Cd322 O334 2.242 . S
Cd322 O336 2.249 . S
Cd322 O340 2.249 . S
Cd322 O346 2.242 . S
Cd322 O347 2.350 . S
C323 O331 1.362 . A
C323 O332 1.185 . A
C324 O333 1.209 . A
C324 O334 1.210 . A
C325 O335 1.362 . A
C325 O336 1.185 . A
C326 O337 1.209 . A
C326 O338 1.210 . A
C327 O339 1.361 . A
C327 O340 1.185 . A
C328 O341 1.209 . A
C328 O342 1.210 . A
C329 O343 1.361 . A
C329 O344 1.185 . A
C330 O345 1.209 . A
C330 O346 1.210 . A
Cd348 O360 2.139 . S
Cd348 O366 2.087 . S
Cd348 O368 2.139 . S
Cd348 O374 2.087 . S
Cd348 O376 2.368 . S
Cd349 O362 2.087 . S
Cd349 O364 2.139 . S
Cd349 O370 2.087 . S
Cd349 O372 2.139 . S
Cd349 O376 2.368 . S
Cd350 O361 2.249 . S
Cd350 O367 2.242 . S
Cd350 O371 2.242 . S
Cd350 O373 2.249 . S
Cd350 O376 2.350 . S
Cd351 O363 2.242 . S
Cd351 O365 2.249 . S
Cd351 O369 2.249 . S
Cd351 O375 2.242 . S
Cd351 O376 2.350 . S
C352 O360 1.362 . A
C352 O361 1.185 . A
C353 O362 1.209 . A
C353 O363 1.210 . A
C354 O364 1.362 . A
C354 O365 1.185 . A
C355 O366 1.209 . A
C355 O367 1.210 . A
C356 O368 1.361 . A
C356 O369 1.185 . A
C357 O370 1.209 . A
C357 O371 1.210 . A
C358 O372 1.361 . A
C358 O373 1.185 . A
C359 O374 1.209 . A
C359 O375 1.210 . A
Cd377 O389 2.139 . S
Cd377 O395 2.087 . S
Cd377 O397 2.139 . S
Cd377 O403 2.087 . S
Cd377 O405 2.368 . S
Cd378 O391 2.087 . S
Cd378 O393 2.139 . S
Cd378 O399 2.087 . S
Cd378 O401 2.139 . S
Cd378 O405 2.368 . S
Cd379 O390 2.249 . S
Cd379 O396 2.242 . S
Cd379 O400 2.242 . S
Cd379 O402 2.249 . S
Cd379 O405 2.350 . S
Cd380 O392 2.242 . S
Cd380 O394 2.249 . S
Cd380 O398 2.249 . S
Cd380 O404 2.242 . S
Cd380 O405 2.350 . S
C381 O389 1.362 . A
C381 O390 1.185 . A
C382 O391 1.209 . A
C382 O392 1.210 . A
C383 O393 1.362 . A
C383 O394 1.185 . A
C384 O395 1.209 . A
C384 O396 1.210 . A
C385 O397 1.361 . A
C385 O398 1.185 . A
C386 O399 1.209 . A
C386 O400 1.210 . A
C387 O401 1.361 . A
C387 O402 1.185 . A
C388 O403 1.209 . A
C388 O404 1.210 . A
Cd406 O418 2.139 . S
Cd406 O424 2.087 . S
Cd406 O426 2.139 . S
Cd406 O432 2.087 . S
Cd406 O434 2.368 . S
Cd407 O420 2.087 . S
Cd407 O422 2.139 . S
Cd407 O428 2.087 . S
Cd407 O430 2.139 . S
Cd407 O434 2.368 . S
Cd408 O419 2.249 . S
Cd408 O425 2.242 . S
Cd408 O429 2.242 . S
Cd408 O431 2.249 . S
Cd408 O434 2.350 . S
Cd409 O421 2.242 . S
Cd409 O423 2.249 . S
Cd409 O427 2.249 . S
Cd409 O433 2.242 . S
Cd409 O434 2.350 . S
C410 O418 1.362 . A
C410 O419 1.185 . A
C411 O420 1.209 . A
C411 O421 1.210 . A
C412 O422 1.362 . A
C412 O423 1.185 . A
C413 O424 1.209 . A
C413 O425 1.210 . A
C414 O426 1.361 . A
C414 O427 1.185 . A
C415 O428 1.209 . A
C415 O429 1.210 . A
C416 O430 1.361 . A
C416 O431 1.185 . A
C417 O432 1.209 . A
C417 O433 1.210 . A
Cd435 O447 2.139 . S
Cd435 O453 2.087 . S
Cd435 O455 2.139 . S
Cd435 O461 2.087 . S
Cd435 O463 2.368 . S
Cd436 O449 2.087 . S
Cd436 O451 2.139 . S
Cd436 O457 2.087 . S
Cd436 O459 2.139 . S
Cd436 O463 2.368 . S
Cd437 O448 2.249 . S
Cd437 O454 2.242 . S
Cd437 O458 2.242 . S
Cd437 O460 2.249 . S
Cd437 O463 2.350 . S
Cd438 O450 2.242 . S
Cd438 O452 2.249 . S
Cd438 O456 2.249 . S
Cd438 O462 2.242 . S
Cd438 O463 2.350 . S
C439 O447 1.362 . A
C439 O448 1.185 . A
C440 O449 1.209 . A
C440 O450 1.210 . A
C441 O451 1.362 . A
C441 O452 1.185 . A
C442 O453 1.209 . A
C442 O454 1.210 . A
C443 O455 1.361 . A
C443 O456 1.185 . A
C444 O457 1.209 . A
C444 O458 1.210 . A
C445 O459 1.361 . A
C445 O460 1.185 . A
C446 O461 1.209 . A
C446 O462 1.210 . A
H464 C469 0.930 . S
H465 C471 0.929 . S
C466 C467 1.423 . A
C466 C471 1.400 . A
C467 C468 1.420 . A
C467 H480 0.930 . S
C468 C469 1.407 . A
C468 N475 1.451 . S
C469 C470 1.395 . A
C470 C471 1.415 . A
H472 C476 0.930 . S
H473 C477 0.930 . S
H474 C479 0.929 . S
N475 C476 1.369 . A
N475 C477 1.370 . A
C476 N478 1.345 . A
C477 C479 1.335 . A
N478 C479 1.403 . A
H481 C486 0.930 . S
H482 C488 0.929 . S
C483 C484 1.423 . A
C483 C488 1.400 . A
C484 C485 1.420 . A
C484 H497 0.930 . S
C485 C486 1.407 . A
C485 N492 1.451 . S
C486 C487 1.395 . A
C487 C488 1.415 . A
H489 C493 0.930 . S
H490 C494 0.930 . S
H491 C496 0.929 . S
N492 C493 1.369 . A
N492 C494 1.370 . A
C493 N495 1.345 . A
C494 C496 1.335 . A
N495 C496 1.403 . A
H498 C503 0.930 . S
H499 C505 0.929 . S
C500 C501 1.423 . A
C500 C505 1.400 . A
C501 C502 1.420 . A
C501 H514 0.930 . S
C502 C503 1.407 . A
C502 N509 1.451 . S
C503 C504 1.395 . A
C504 C505 1.415 . A
H506 C510 0.930 . S
H507 C511 0.930 . S
H508 C513 0.929 . S
N509 C510 1.369 . A
N509 C511 1.370 . A
C510 N512 1.345 . A
C511 C513 1.335 . A
N512 C513 1.403 . A
H515 C520 0.930 . S
H516 C522 0.929 . S
C517 C518 1.423 . A
C517 C522 1.400 . A
C518 C519 1.420 . A
C518 H531 0.930 . S
C519 C520 1.407 . A
C519 N526 1.451 . S
C520 C521 1.395 . A
C521 C522 1.415 . A
H523 C527 0.930 . S
H524 C528 0.930 . S
H525 C530 0.929 . S
N526 C527 1.369 . A
N526 C528 1.370 . A
C527 N529 1.345 . A
C528 C530 1.335 . A
N529 C530 1.403 . A
H532 C537 0.930 . S
H533 C539 0.929 . S
C534 C535 1.423 . A
C534 C539 1.400 . A
C535 C536 1.420 . A
C535 H548 0.930 . S
C536 C537 1.407 . A
C536 N543 1.451 . S
C537 C538 1.395 . A
C538 C539 1.415 . A
H540 C544 0.930 . S
H541 C545 0.930 . S
H542 C547 0.929 . S
N543 C544 1.369 . A
N543 C545 1.370 . A
C544 N546 1.345 . A
C545 C547 1.335 . A
N546 C547 1.403 . A
H549 C554 0.930 . S
H550 C556 0.929 . S
C551 C552 1.423 . A
C551 C556 1.400 . A
C552 C553 1.420 . A
C552 H565 0.930 . S
C553 C554 1.407 . A
C553 N560 1.451 . S
C554 C555 1.395 . A
C555 C556 1.415 . A
H557 C561 0.930 . S
H558 C562 0.930 . S
H559 C564 0.929 . S
N560 C561 1.369 . A
N560 C562 1.370 . A
C561 N563 1.345 . A
C562 C564 1.335 . A
N563 C564 1.403 . A
H566 C571 0.930 . S
H567 C573 0.929 . S
C568 C569 1.423 . A
C568 C573 1.400 . A
C569 C570 1.420 . A
C569 H582 0.930 . S
C570 C571 1.407 . A
C570 N577 1.451 . S
C571 C572 1.395 . A
C572 C573 1.415 . A
H574 C578 0.930 . S
H575 C579 0.930 . S
H576 C581 0.929 . S
N577 C578 1.369 . A
N577 C579 1.370 . A
C578 N580 1.345 . A
C579 C581 1.335 . A
N580 C581 1.403 . A
H583 C588 0.930 . S
H584 C590 0.929 . S
C585 C586 1.423 . A
C585 C590 1.400 . A
C586 C587 1.420 . A
C586 H599 0.930 . S
C587 C588 1.407 . A
C587 N594 1.451 . S
C588 C589 1.395 . A
C589 C590 1.415 . A
H591 C595 0.930 . S
H592 C596 0.930 . S
H593 C598 0.929 . S
N594 C595 1.369 . A
N594 C596 1.370 . A
C595 N597 1.345 . A
C596 C598 1.335 . A
N597 C598 1.403 . A
H600 C605 0.930 . S
H601 C607 0.929 1_545 S
C602 C603 1.423 . A
C602 C607 1.400 1_545 A
C603 C604 1.420 1_545 A
C603 H616 0.930 . S
C604 C605 1.407 . A
C604 N611 1.451 . S
C605 C606 1.395 . A
C606 C607 1.415 . A
H608 C612 0.930 1_545 S
H609 C613 0.930 . S
H610 C615 0.929 . S
N611 C612 1.369 . A
N611 C613 1.370 . A
C612 N614 1.345 . A
C613 C615 1.335 . A
N614 C615 1.403 . A
H617 C622 0.930 . S
H618 C624 0.929 . S
C619 C620 1.423 . A
C619 C624 1.400 . A
C620 C621 1.420 1_455 A
C620 H633 0.930 . S
C621 C622 1.407 . A
C621 N628 1.451 . S
C622 C623 1.395 . A
C623 C624 1.415 1_655 A
H625 C629 0.930 . S
H626 C630 0.930 . S
H627 C632 0.929 . S
N628 C629 1.369 1_655 A
N628 C630 1.370 . A
C629 N631 1.345 1_455 A
C630 C632 1.335 . A
N631 C632 1.403 . A
H634 C639 0.930 . S
H635 C641 0.929 . S
C636 C637 1.423 . A
C636 C641 1.400 1_565 A
C637 C638 1.420 1_565 A
C637 H650 0.930 . S
C638 C639 1.407 . A
C638 N645 1.451 . S
C639 C640 1.395 . A
C640 C641 1.415 . A
H642 C646 0.930 . S
H643 C647 0.930 . S
H644 C649 0.929 1_455 S
N645 C646 1.369 1_545 A
N645 C647 1.370 . A
C646 N648 1.345 . A
C647 C649 1.335 . A
N648 C649 1.403 1_565 A
H651 C656 0.930 . S
H652 C658 0.929 . S
C653 C654 1.423 . A
C653 C658 1.400 . A
C654 C655 1.420 . A
C654 H667 0.930 . S
C655 C656 1.407 1_655 A
C655 N662 1.451 . S
C656 C657 1.395 . A
C657 C658 1.415 1_455 A
H659 C663 0.930 . S
H660 C664 0.930 . S
H661 C666 0.929 . S
N662 C663 1.369 . A
N662 C664 1.370 1_655 A
C663 N665 1.345 . A
C664 C666 1.335 . A
N665 C666 1.403 1_655 A
H668 C673 0.930 . S
H669 C675 0.929 . S
C670 C671 1.423 . A
C670 C675 1.400 1_545 A
C671 C672 1.420 1_545 A
C671 H684 0.930 . S
C672 C673 1.407 . A
C672 N679 1.451 . S
C673 C674 1.395 . A
C674 C675 1.415 . A
H676 C680 0.930 1_545 S
H677 C681 0.930 . S
H678 C683 0.929 . S
N679 C680 1.369 . A
N679 C681 1.370 . A
C680 N682 1.345 . A
C681 C683 1.335 . A
N682 C683 1.403 . A
H685 C690 0.930 . S
H686 C692 0.929 . S
C687 C688 1.423 1_655 A
C687 C692 1.400 1_655 A
C688 C689 1.420 . A
C688 H701 0.930 1_455 S
C689 C690 1.407 . A
C689 N696 1.451 . S
C690 C691 1.395 . A
C691 C692 1.415 . A
H693 C697 0.930 1_655 S
H694 C698 0.930 . S
H695 C700 0.929 . S
N696 C697 1.369 . A
N696 C698 1.370 . A
C697 N699 1.345 . A
C698 C700 1.335 . A
N699 C700 1.403 . A
H702 C707 0.930 . S
H703 C709 0.929 . S
C704 C705 1.423 . A
C704 C709 1.400 . A
C705 C706 1.420 . A
C705 H718 0.930 . S
C706 C707 1.407 1_556 A
C706 N713 1.451 . S
C707 C708 1.395 . A
C708 C709 1.415 1_554 A
H710 C714 0.930 . S
H711 C715 0.930 . S
H712 C717 0.929 . S
N713 C714 1.369 . A
N713 C715 1.370 1_556 A
C714 N716 1.345 . A
C715 C717 1.335 . A
N716 C717 1.403 1_556 A
H719 C724 0.930 . S
H720 C726 0.930 . S
C721 C722 1.423 . A
C721 C726 1.407 . A
C722 C723 1.420 1_554 A
C722 H735 0.930 . S
C723 C724 1.407 . A
C723 N730 1.451 . S
C724 C725 1.395 . A
C725 C726 1.407 1_556 A
H727 C731 0.930 . S
H728 C732 0.930 . S
H729 C734 0.929 . S
N730 C731 1.369 1_556 A
N730 C732 1.370 . A
C731 N733 1.345 . A
C732 C734 1.335 . A
N733 C734 1.403 1_554 A
H736 C741 0.930 . S
H737 C743 0.929 . S
C738 C739 1.423 . A
C738 C743 1.400 . A
C739 C740 1.420 1_556 A
C739 H752 0.930 . S
C740 C741 1.407 . A
C740 N747 1.451 . S
C741 C742 1.395 . A
C742 C743 1.415 1_554 A
H744 C748 0.930 . S
H745 C749 0.930 . S
H746 C751 0.929 . S
N747 C748 1.369 1_554 A
N747 C749 1.370 . A
C748 N750 1.345 1_556 A
C749 C751 1.335 . A
N750 C751 1.403 . A
H753 C758 0.930 . S
H754 C760 0.930 . S
C755 C756 1.423 . A
C755 C760 1.405 . A
C756 C757 1.420 1_556 A
C756 H769 0.930 . S
C757 C758 1.407 . A
C757 N764 1.451 . S
C758 C759 1.395 . A
C759 C760 1.410 1_554 A
H761 C765 0.930 . S
H762 C766 0.930 . S
H763 C768 0.929 1_655 S
N764 C765 1.369 1_554 A
N764 C766 1.370 . A
C765 N767 1.345 . A
C766 C768 1.335 . A
N767 C768 1.403 1_556 A
H770 C775 0.930 . S
H771 C777 0.929 . S
C772 C773 1.423 . A
C772 C777 1.400 . A
C773 C774 1.420 . A
C773 H786 0.930 . S
C774 C775 1.407 . A
C774 N781 1.451 . S
C775 C776 1.395 . A
C776 C777 1.415 . A
H778 C782 0.930 . S
H779 C783 0.930 . S
H780 C785 0.929 . S
N781 C782 1.369 . A
N781 C783 1.370 . A
C782 N784 1.345 . A
C783 C785 1.335 . A
N784 C785 1.403 . A
H787 C792 0.930 . S
H788 C794 0.929 . S
C789 C790 1.423 . A
C789 C794 1.400 . A
C790 C791 1.420 . A
C790 H803 0.930 . S
C791 C792 1.407 . A
C791 N798 1.451 . S
C792 C793 1.395 . A
C793 C794 1.415 . A
H795 C799 0.930 . S
H796 C800 0.930 . S
H797 C802 0.929 . S
N798 C799 1.369 . A
N798 C800 1.370 . A
C799 N801 1.345 . A
C800 C802 1.335 . A
N801 C802 1.403 . A
H804 C809 0.930 . S
H805 C811 0.929 . S
C806 C807 1.423 . A
C806 C811 1.400 . A
C807 C808 1.420 . A
C807 H820 0.930 . S
C808 C809 1.407 . A
C808 N815 1.451 . S
C809 C810 1.395 . A
C810 C811 1.415 . A
H812 C816 0.930 . S
H813 C817 0.930 . S
H814 C819 0.929 . S
N815 C816 1.369 . A
N815 C817 1.370 . A
C816 N818 1.345 . A
C817 C819 1.335 . A
N818 C819 1.403 . A
H821 C826 0.930 . S
H822 C828 0.929 . S
C823 C824 1.423 . A
C823 C828 1.400 . A
C824 C825 1.420 . A
C824 H837 0.930 . S
C825 C826 1.407 . A
C825 N832 1.451 . S
C826 C827 1.395 . A
C827 C828 1.415 . A
H829 C833 0.930 . S
H830 C834 0.930 . S
H831 C836 0.929 . S
N832 C833 1.369 . A
N832 C834 1.370 . A
C833 N835 1.345 . A
C834 C836 1.335 . A
N835 C836 1.403 . A
H838 C843 0.930 . S
H839 C845 0.929 . S
C840 C841 1.423 . A
C840 C845 1.400 . A
C841 C842 1.420 . A
C841 H854 0.930 . S
C842 C843 1.407 . A
C842 N849 1.451 . S
C843 C844 1.395 . A
C844 C845 1.415 . A
H846 C850 0.930 . S
H847 C851 0.930 . S
H848 C853 0.929 . S
N849 C850 1.369 . A
N849 C851 1.370 . A
C850 N852 1.345 . A
C851 C853 1.335 . A
N852 C853 1.403 . A
H855 C860 0.930 . S
H856 C862 0.929 . S
C857 C858 1.423 . A
C857 C862 1.400 . A
C858 C859 1.420 . A
C858 H871 0.930 . S
C859 C860 1.407 . A
C859 N866 1.451 . S
C860 C861 1.395 . A
C861 C862 1.415 . A
H863 C867 0.930 . S
H864 C868 0.930 . S
H865 C870 0.929 . S
N866 C867 1.369 . A
N866 C868 1.370 . A
C867 N869 1.345 . A
C868 C870 1.335 . A
N869 C870 1.403 . A
H872 C877 0.930 . S
H873 C879 0.929 . S
C874 C875 1.423 . A
C874 C879 1.400 . A
C875 C876 1.420 . A
C875 H888 0.930 . S
C876 C877 1.407 . A
C876 N883 1.451 . S
C877 C878 1.395 . A
C878 C879 1.415 . A
H880 C884 0.930 . S
H881 C885 0.930 . S
H882 C887 0.929 . S
N883 C884 1.369 . A
N883 C885 1.370 . A
C884 N886 1.345 . A
C885 C887 1.335 . A
N886 C887 1.403 . A
H889 C894 0.930 . S
H890 C896 0.929 . S
C891 C892 1.423 . A
C891 C896 1.400 . A
C892 C893 1.420 . A
C892 H905 0.930 . S
C893 C894 1.407 . A
C893 N900 1.451 . S
C894 C895 1.395 . A
C895 C896 1.415 . A
H897 C901 0.930 . S
H898 C902 0.930 . S
H899 C904 0.929 . S
N900 C901 1.369 . A
N900 C902 1.370 . A
C901 N903 1.345 . A
C902 C904 1.335 . A
N903 C904 1.403 . A
H906 C911 0.930 . S
H907 C913 0.929 . S
C908 C909 1.423 . A
C908 C913 1.400 . A
C909 C910 1.420 . A
C909 H922 0.930 . S
C910 C911 1.407 . A
C910 N917 1.451 . S
C911 C912 1.395 . A
C912 C913 1.415 . A
H914 C918 0.930 . S
H915 C919 0.930 . S
H916 C921 0.929 . S
N917 C918 1.369 . A
N917 C919 1.370 . A
C918 N920 1.345 . A
C919 C921 1.335 . A
N920 C921 1.403 . A
H923 C928 0.930 . S
H924 C930 0.929 . S
C925 C926 1.423 . A
C925 C930 1.400 . A
C926 C927 1.420 . A
C926 H939 0.930 . S
C927 C928 1.407 . A
C927 N934 1.451 . S
C928 C929 1.395 . A
C929 C930 1.415 . A
H931 C935 0.930 . S
H932 C936 0.930 . S
H933 C938 0.929 . S
N934 C935 1.369 . A
N934 C936 1.370 . A
C935 N937 1.345 . A
C936 C938 1.335 . A
N937 C938 1.403 . A
H940 C945 0.930 . S
H941 C947 0.929 . S
C942 C943 1.423 . A
C942 C947 1.400 . A
C943 C944 1.420 . A
C943 H956 0.930 . S
C944 C945 1.407 . A
C944 N951 1.451 . S
C945 C946 1.395 . A
C946 C947 1.415 . A
H948 C952 0.930 . S
H949 C953 0.930 . S
H950 C955 0.929 . S
N951 C952 1.369 . A
N951 C953 1.370 . A
C952 N954 1.345 . A
C953 C955 1.335 . A
N954 C955 1.403 . A
H957 C962 0.930 . S
H958 C964 0.929 . S
C959 C960 1.423 . A
C959 C964 1.400 . A
C960 C961 1.420 . A
C960 H973 0.930 . S
C961 C962 1.407 . A
C961 N968 1.451 . S
C962 C963 1.395 . A
C963 C964 1.415 . A
H965 C969 0.930 . S
H966 C970 0.930 . S
H967 C972 0.929 . S
N968 C969 1.369 . A
N968 C970 1.370 . A
C969 N971 1.345 . A
C970 C972 1.335 . A
N971 C972 1.403 . A
H974 C979 0.930 . S
H975 C981 0.929 . S
C976 C977 1.423 . A
C976 C981 1.400 . A
C977 C978 1.420 . A
C977 H990 0.930 . S
C978 C979 1.407 1_545 A
C978 N985 1.451 . S
C979 C980 1.395 . A
C980 C981 1.415 1_565 A
H982 C986 0.930 . S
H983 C987 0.930 . S
H984 C989 0.929 . S
N985 C986 1.369 . A
N985 C987 1.370 1_545 A
C986 N988 1.345 . A
C987 C989 1.335 . A
N988 C989 1.403 1_545 A
H991 C996 0.930 . S
H992 C998 0.929 . S
C993 C994 1.423 . A
C993 C998 1.400 . A
C994 C995 1.420 1_655 A
C994 H1007 0.930 . S
C995 C996 1.407 . A
C995 N1002 1.451 . S
C996 C997 1.395 . A
C997 C998 1.415 1_455 A
H999 C1003 0.930 1_655 S
H1000 C1004 0.930 . S
H1001 C1006 0.929 . S
N1002 C1003 1.369 . A
N1002 C1004 1.370 . A
C1003 N1005 1.345 . A
C1004 C1006 1.335 . A
N1005 C1006 1.403 . A
C466 C410 1.408 . S
C470 C4 1.236 . S
C483 C439 1.356 . S
C487 C33 1.264 . S
C500 C62 1.092 . S
C504 C236 1.333 . S
C517 C91 1.306 . S
C521 C265 1.202 . S
C534 C294 1.499 . S
C538 C120 1.396 . S
C551 C149 1.185 . S
C555 C323 1.407 . S
C568 C352 1.377 . S
C572 C178 1.253 . S
C585 C207 1.247 . S
C589 C381 1.241 . S
C602 C8 1.430 . S
C606 C153 1.320 . S
C619 C124 1.626 . S
C623 C37 1.387 . S
C636 C63 1.279 . S
C640 C39 1.279 . S
C653 C66 1.074 . S
C657 C92 1.203 . S
C670 C121 1.294 . S
C674 C95 1.216 . S
C687 C150 1.360 . S
C691 C182 1.167 . S
C704 C184 1.402 . S
C708 C97 1.313 . S
C721 C34 1.167 . S
C725 C5 1.221 . S
C738 C155 1.465 . S
C742 C68 1.449 . S
C755 C213 1.328 . S
C759 C126 1.427 . S
C772 C329 1.615 . S
C776 C242 1.504 . S
C789 C266 1.357 . S
C793 C353 1.331 . S
C806 C295 1.571 . S
C810 C387 1.318 . S
C823 C327 1.179 . S
C827 C356 1.443 . S
C840 C358 1.165 . S
C844 C382 1.376 . S
C857 C385 1.054 . S
C861 C411 1.210 . S
C874 C324 1.582 . S
C878 C414 1.317 . S
C891 C443 1.530 . S
C895 C298 1.351 . S
C908 C440 1.128 . S
C912 C240 1.112 . S
C925 C271 1.021 . S
C929 C237 1.310 . S
C942 C300 1.471 . S
C946 C269 1.346 . S
C959 C416 1.225 . S
C963 C445 1.337 . S
C976 C211 1.136 . S
C980 C179 1.284 . S
C993 C10 1.406 . S
C997 C208 1.248 . S
