# Generated by pormake.
# Topology pcb, (4)-cn, num edge types: 1
# Building blocks:
#     Node 0, Type 0, BuildingBlock: N673, # of connection points: 8
#     Node 1, Type 0, BuildingBlock: N673, # of connection points: 8
#     Node 2, Type 0, BuildingBlock: N673, # of connection points: 8
#     Node 3, Type 0, BuildingBlock: N673, # of connection points: 8
#     Node 4, Type 0, BuildingBlock: N673, # of connection points: 8
#     Node 5, Type 0, BuildingBlock: N673, # of connection points: 8
#     Node 6, Type 0, BuildingBlock: N673, # of connection points: 8
#     Node 7, Type 0, BuildingBlock: N673, # of connection points: 8
#     Node 8, Type 0, BuildingBlock: N673, # of connection points: 8
#     Node 9, Type 0, BuildingBlock: N673, # of connection points: 8
#     Node 10, Type 0, BuildingBlock: N673, # of connection points: 8
#     Node 11, Type 0, BuildingBlock: N673, # of connection points: 8
#     Node 12, Type 0, BuildingBlock: N673, # of connection points: 8
#     Node 13, Type 0, BuildingBlock: N673, # of connection points: 8
#     Node 14, Type 0, BuildingBlock: N673, # of connection points: 8
#     Node 15, Type 0, BuildingBlock: N673, # of connection points: 8
#     Edge 16, Type (0, 0), BuildingBlock: E51, # of connection points: 2
#     Edge 17, Type (0, 0), BuildingBlock: E51, # of connection points: 2
#     Edge 18, Type (0, 0), BuildingBlock: E51, # of connection points: 2
#     Edge 19, Type (0, 0), BuildingBlock: E51, # of connection points: 2
#     Edge 20, Type (0, 0), BuildingBlock: E51, # of connection points: 2
#     Edge 21, Type (0, 0), BuildingBlock: E51, # of connection points: 2
#     Edge 22, Type (0, 0), BuildingBlock: E51, # of connection points: 2
#     Edge 23, Type (0, 0), BuildingBlock: E51, # of connection points: 2
#     Edge 24, Type (0, 0), BuildingBlock: E51, # of connection points: 2
#     Edge 25, Type (0, 0), BuildingBlock: E51, # of connection points: 2
#     Edge 26, Type (0, 0), BuildingBlock: E51, # of connection points: 2
#     Edge 27, Type (0, 0), BuildingBlock: E51, # of connection points: 2
#     Edge 28, Type (0, 0), BuildingBlock: E51, # of connection points: 2
#     Edge 29, Type (0, 0), BuildingBlock: E51, # of connection points: 2
#     Edge 30, Type (0, 0), BuildingBlock: E51, # of connection points: 2
#     Edge 31, Type (0, 0), BuildingBlock: E51, # of connection points: 2
#     Edge 32, Type (0, 0), BuildingBlock: E51, # of connection points: 2
#     Edge 33, Type (0, 0), BuildingBlock: E51, # of connection points: 2
#     Edge 34, Type (0, 0), BuildingBlock: E51, # of connection points: 2
#     Edge 35, Type (0, 0), BuildingBlock: E51, # of connection points: 2
#     Edge 36, Type (0, 0), BuildingBlock: E51, # of connection points: 2
#     Edge 37, Type (0, 0), BuildingBlock: E51, # of connection points: 2
#     Edge 38, Type (0, 0), BuildingBlock: E51, # of connection points: 2
#     Edge 39, Type (0, 0), BuildingBlock: E51, # of connection points: 2
#     Edge 40, Type (0, 0), BuildingBlock: E51, # of connection points: 2
#     Edge 41, Type (0, 0), BuildingBlock: E51, # of connection points: 2
#     Edge 42, Type (0, 0), BuildingBlock: E51, # of connection points: 2
#     Edge 43, Type (0, 0), BuildingBlock: E51, # of connection points: 2
#     Edge 44, Type (0, 0), BuildingBlock: E51, # of connection points: 2
#     Edge 45, Type (0, 0), BuildingBlock: E51, # of connection points: 2
#     Edge 46, Type (0, 0), BuildingBlock: E51, # of connection points: 2
#     Edge 47, Type (0, 0), BuildingBlock: E51, # of connection points: 2
# Relax obj value: 0.340
# Max RMSD: 0.295
# Mean RMSD: 0.206
data_pcb+N673+E51
_symmetry_space_group_name_H-M    P1
_symmetry_Int_Tables_number       1
_symmetry_cell_setting            triclinic
loop_
_symmetry_equiv_pos_as_xyz
'x, y, z'
_cell_length_a     47.870
_cell_length_b     50.209
_cell_length_c     39.970
_cell_angle_alpha  98.559
_cell_angle_beta   101.569
_cell_angle_gamma  91.996
loop_
_atom_site_label
_atom_site_type_symbol
_atom_site_fract_x
_atom_site_fract_y
_atom_site_fract_z
_atom_type_partial_charge
O0 O 0.89072 0.18126 0.80549 0.00000
Eu1 Eu 0.84526 0.15980 0.80070 0.00000
O2 O 0.84000 0.20780 0.80889 0.00000
O3 O 0.87812 0.12759 0.82213 0.00000
O4 O 0.81051 0.16773 0.75245 0.00000
O5 O 0.82009 0.11726 0.78223 0.00000
H6 H 0.80182 0.21081 0.85181 0.00000
H7 H 0.84171 0.09451 0.73364 0.00000
H8 H 0.81136 0.07502 0.68116 0.00000
H9 H 0.84861 0.16396 0.69770 0.00000
H10 H 0.89954 0.12177 0.93500 0.00000
H11 H 0.86123 0.13470 0.89783 0.00000
H12 H 0.80296 0.22620 0.91041 0.00000
H13 H 0.79953 0.13484 0.86968 0.00000
H14 H 0.90974 0.19201 0.87439 0.00000
H15 H 0.80087 0.14980 0.92778 0.00000
H16 H 0.94974 0.17871 0.90931 0.00000
H17 H 0.81789 0.14558 0.64576 0.00000
H18 H 0.90616 0.19272 0.75277 0.00000
H19 H 0.91133 0.26404 0.81234 0.00000
H20 H 0.79744 0.09593 0.82382 0.00000
H21 H 0.94906 0.18354 0.73575 0.00000
H22 H 0.90147 0.10815 0.77461 0.00000
H23 H 0.85482 0.08867 0.84027 0.00000
H24 H 0.89080 0.25427 0.90237 0.00000
H25 H 0.85158 0.04304 0.81496 0.00000
H26 H 0.89951 0.06273 0.74886 0.00000
H27 H 0.87444 0.23313 0.78345 0.00000
H28 H 0.85407 0.22317 0.87317 0.00000
H29 H 0.92684 0.15051 0.82995 0.00000
H30 H 0.96934 0.14036 0.81352 0.00000
H31 H 0.76609 0.17814 0.77458 0.00000
H32 H 0.79431 0.24370 0.71738 0.00000
H33 H 0.77922 0.12130 0.73230 0.00000
H34 H 0.73216 0.10609 0.72501 0.00000
H35 H 0.82026 0.20670 0.72384 0.00000
H36 H 0.73897 0.21514 0.76818 0.00000
H37 H 0.74991 0.08215 0.81854 0.00000
C38 C 0.80182 0.19826 0.86742 0.00000
C39 C 0.83639 0.10498 0.71571 0.00000
C40 C 0.81065 0.10863 0.65848 0.00000
C41 C 0.81829 0.09338 0.68445 0.00000
C42 C 0.84043 0.14602 0.69465 0.00000
C43 C 0.90215 0.13603 0.92251 0.00000
C44 C 0.92930 0.14888 0.92670 0.00000
C45 C 0.87942 0.14388 0.90063 0.00000
C46 C 0.80301 0.20737 0.90258 0.00000
C47 C 0.80055 0.15368 0.87801 0.00000
C48 C 0.90802 0.17739 0.88658 0.00000
C49 C 0.80422 0.18994 0.92575 0.00000
C50 C 0.80175 0.16258 0.91265 0.00000
C51 C 0.93160 0.16974 0.90764 0.00000
C52 C 0.82232 0.13496 0.66367 0.00000
C53 C 0.91959 0.18267 0.76568 0.00000
C54 C 0.90003 0.25545 0.82514 0.00000
C55 C 0.78387 0.09824 0.80374 0.00000
C56 C 0.94507 0.17703 0.75552 0.00000
C57 C 0.89111 0.09475 0.78250 0.00000
C58 C 0.86347 0.08319 0.82116 0.00000
C59 C 0.88803 0.24976 0.87797 0.00000
C60 C 0.86171 0.05609 0.80619 0.00000
C61 C 0.88993 0.06778 0.76722 0.00000
C62 C 0.87798 0.23745 0.80796 0.00000
C63 C 0.86591 0.23152 0.86069 0.00000
C64 C 0.90635 0.26164 0.86124 0.00000
C65 C 0.87461 0.04824 0.77900 0.00000
C66 C 0.96474 0.16227 0.77373 0.00000
C67 C 0.93186 0.15769 0.81108 0.00000
C68 C 0.95697 0.15176 0.80138 0.00000
C69 C 0.77158 0.19165 0.76238 0.00000
C70 C 0.78771 0.23007 0.72864 0.00000
C71 C 0.77316 0.11297 0.74975 0.00000
C72 C 0.74528 0.10407 0.74559 0.00000
C73 C 0.80331 0.20831 0.73275 0.00000
C74 C 0.75541 0.21351 0.75828 0.00000
C75 C 0.75562 0.08974 0.80041 0.00000
C76 C 0.76248 0.23305 0.74025 0.00000
C77 C 0.73539 0.09209 0.77093 0.00000
N78 N 0.84632 0.13120 0.72035 0.00000
N79 N 0.88198 0.16396 0.88304 0.00000
N80 N 0.80075 0.17137 0.85589 0.00000
N81 N 0.79248 0.10980 0.77897 0.00000
N82 N 0.91399 0.17369 0.79379 0.00000
N83 N 0.86115 0.22565 0.82593 0.00000
N84 N 0.87768 0.10160 0.80827 0.00000
N85 N 0.79521 0.18949 0.74901 0.00000
O86 O 0.85937 0.17167 0.86247 0.00000
O87 O 0.86275 0.14194 0.75032 0.00000
O88 O 0.80154 0.16268 0.82325 0.00000
O89 O 0.79740 0.08495 0.16275 0.00000
Eu90 Eu 0.81466 0.12966 0.16412 0.00000
O91 O 0.76317 0.12879 0.15129 0.00000
O92 O 0.85267 0.10268 0.14908 0.00000
O93 O 0.80223 0.16159 0.20787 0.00000
O94 O 0.85673 0.15822 0.18330 0.00000
H95 H 0.75523 0.16324 0.10360 0.00000
H96 H 0.88359 0.14153 0.23643 0.00000
H97 H 0.90074 0.17266 0.28722 0.00000
H98 H 0.81100 0.12748 0.26749 0.00000
H99 H 0.86104 0.08197 0.03880 0.00000
H100 H 0.84285 0.11647 0.07061 0.00000
H101 H 0.73888 0.15957 0.04365 0.00000
H102 H 0.83535 0.17402 0.09174 0.00000
H103 H 0.78809 0.06511 0.09491 0.00000
H104 H 0.81947 0.17023 0.03236 0.00000
H105 H 0.80689 0.02912 0.06559 0.00000
H106 H 0.82692 0.15882 0.31760 0.00000
H107 H 0.78731 0.07001 0.21645 0.00000
H108 H 0.71221 0.05604 0.15134 0.00000
H109 H 0.87644 0.18115 0.14076 0.00000
H110 H 0.80226 0.03157 0.23922 0.00000
H111 H 0.87622 0.08397 0.20105 0.00000
H112 H 0.89100 0.12859 0.13146 0.00000
H113 H 0.71978 0.07498 0.05947 0.00000
H114 H 0.93902 0.13729 0.16028 0.00000
H115 H 0.92417 0.09147 0.23046 0.00000
H116 H 0.74059 0.09425 0.17866 0.00000
H117 H 0.74838 0.11307 0.08714 0.00000
H118 H 0.83425 0.05474 0.14493 0.00000
H119 H 0.85018 0.01676 0.16713 0.00000
H120 H 0.78577 0.20124 0.17969 0.00000
H121 H 0.71994 0.16818 0.23485 0.00000
H122 H 0.84768 0.19632 0.22836 0.00000
H123 H 0.85813 0.24181 0.23154 0.00000
H124 H 0.76223 0.14839 0.23444 0.00000
H125 H 0.74334 0.22212 0.17991 0.00000
H126 H 0.88532 0.22689 0.14174 0.00000
C127 C 0.76847 0.16449 0.08898 0.00000
C128 C 0.87192 0.14548 0.25294 0.00000
C129 C 0.86514 0.16969 0.30709 0.00000
C130 C 0.88212 0.16404 0.28319 0.00000
C131 C 0.82902 0.13720 0.27110 0.00000
C132 C 0.84629 0.07805 0.05043 0.00000
C133 C 0.83595 0.05132 0.04828 0.00000
C134 C 0.83531 0.09849 0.06912 0.00000
C135 C 0.75885 0.16184 0.05309 0.00000
C136 C 0.81548 0.17075 0.08193 0.00000
C137 C 0.80333 0.06825 0.08370 0.00000
C138 C 0.77738 0.16244 0.03144 0.00000
C139 C 0.80609 0.16812 0.04658 0.00000
C140 C 0.81420 0.04700 0.06592 0.00000
C141 C 0.83865 0.15571 0.30103 0.00000
C142 C 0.79953 0.05857 0.20588 0.00000
C143 C 0.71991 0.06735 0.13791 0.00000
C144 C 0.87243 0.19374 0.15916 0.00000
C145 C 0.80861 0.03575 0.21948 0.00000
C146 C 0.88914 0.09504 0.19307 0.00000
C147 C 0.89791 0.12148 0.15207 0.00000
C148 C 0.72431 0.07841 0.08400 0.00000
C149 C 0.92645 0.12650 0.16915 0.00000
C150 C 0.91761 0.09950 0.21051 0.00000
C151 C 0.73636 0.09013 0.15411 0.00000
C152 C 0.74100 0.10129 0.10032 0.00000
C153 C 0.71399 0.06026 0.10191 0.00000
C154 C 0.93640 0.11584 0.19856 0.00000
C155 C 0.82656 0.01900 0.20470 0.00000
C156 C 0.82731 0.04950 0.16383 0.00000
C157 C 0.83666 0.02705 0.17694 0.00000
C158 C 0.77217 0.19474 0.19144 0.00000
C159 C 0.73354 0.17575 0.22394 0.00000
C160 C 0.85571 0.20267 0.21086 0.00000
C161 C 0.86179 0.22961 0.21257 0.00000
C162 C 0.75845 0.16378 0.22341 0.00000
C163 C 0.74708 0.20721 0.19187 0.00000
C164 C 0.87802 0.22096 0.15996 0.00000
C165 C 0.72730 0.19861 0.20914 0.00000
C166 C 0.87320 0.23984 0.18701 0.00000
N167 N 0.84534 0.13313 0.24724 0.00000
N168 N 0.81442 0.09401 0.08538 0.00000
N169 N 0.79685 0.16879 0.10267 0.00000
N170 N 0.86130 0.18473 0.18402 0.00000
N171 N 0.80827 0.06442 0.17779 0.00000
N172 N 0.74677 0.10686 0.13513 0.00000
N173 N 0.88017 0.10633 0.16510 0.00000
N174 N 0.77735 0.17327 0.20774 0.00000
O175 O 0.80359 0.11434 0.10278 0.00000
O176 O 0.83584 0.11623 0.21816 0.00000
O177 O 0.80626 0.16953 0.13623 0.00000
O178 O 0.82943 0.81856 0.11033 0.00000
Eu179 Eu 0.84063 0.82524 0.17121 0.00000
O180 O 0.78938 0.81792 0.15349 0.00000
O181 O 0.88005 0.84891 0.15584 0.00000
O182 O 0.82790 0.78769 0.19605 0.00000
O183 O 0.87962 0.82551 0.21784 0.00000
H184 H 0.77330 0.85453 0.20295 0.00000
H185 H 0.91234 0.79177 0.19604 0.00000
H186 H 0.92919 0.75863 0.22955 0.00000
H187 H 0.84571 0.74192 0.14473 0.00000
H188 H 0.88197 0.93833 0.15761 0.00000
H189 H 0.86231 0.90840 0.18602 0.00000
H190 H 0.75293 0.89637 0.20530 0.00000
H191 H 0.84926 0.89156 0.24895 0.00000
H192 H 0.81739 0.86836 0.09729 0.00000
H193 H 0.82942 0.93311 0.25121 0.00000
H194 H 0.83804 0.89645 0.06675 0.00000
H195 H 0.86129 0.70892 0.17817 0.00000
H196 H 0.82585 0.77191 0.07661 0.00000
H197 H 0.74898 0.79749 0.04532 0.00000
H198 H 0.89248 0.86693 0.26254 0.00000
H199 H 0.84727 0.75727 0.03032 0.00000
H200 H 0.90970 0.81487 0.13059 0.00000
H201 H 0.91274 0.87699 0.20581 0.00000
H202 H 0.74648 0.87373 0.09125 0.00000
H203 H 0.96089 0.87079 0.22832 0.00000
H204 H 0.95798 0.80813 0.15147 0.00000
H205 H 0.77399 0.78708 0.09681 0.00000
H206 H 0.77175 0.86311 0.14261 0.00000
H207 H 0.86790 0.84390 0.09118 0.00000
H208 H 0.89018 0.83007 0.04596 0.00000
H209 H 0.80441 0.80616 0.24442 0.00000
H210 H 0.74881 0.73867 0.16719 0.00000
H211 H 0.86951 0.78834 0.25122 0.00000
H212 H 0.87410 0.79131 0.31008 0.00000
H213 H 0.79267 0.75249 0.15905 0.00000
H214 H 0.76026 0.79249 0.25388 0.00000
H215 H 0.89532 0.87111 0.32159 0.00000
C216 C 0.78489 0.87066 0.21265 0.00000
C217 C 0.90175 0.77489 0.19288 0.00000
C218 C 0.89639 0.73068 0.20817 0.00000
C219 C 0.91178 0.75515 0.21286 0.00000
C220 C 0.86236 0.74558 0.16263 0.00000
C221 C 0.86900 0.92393 0.14473 0.00000
C222 C 0.86217 0.92099 0.10862 0.00000
C223 C 0.85714 0.90626 0.16152 0.00000
C224 C 0.77292 0.89575 0.21357 0.00000
C225 C 0.82947 0.89247 0.23958 0.00000
C226 C 0.83097 0.88255 0.10931 0.00000
C227 C 0.78921 0.91924 0.22600 0.00000
C228 C 0.81776 0.91721 0.24050 0.00000
C229 C 0.84290 0.89943 0.09130 0.00000
C230 C 0.87181 0.72590 0.18240 0.00000
C231 C 0.83842 0.78395 0.06954 0.00000
C232 C 0.75395 0.81123 0.06496 0.00000
C233 C 0.88841 0.85151 0.27242 0.00000
C234 C 0.85133 0.77526 0.04212 0.00000
C235 C 0.92025 0.82606 0.15072 0.00000
C236 C 0.92208 0.86268 0.19525 0.00000
C237 C 0.75245 0.85595 0.09184 0.00000
C238 C 0.95071 0.85903 0.20845 0.00000
C239 C 0.94891 0.82206 0.16314 0.00000
C240 C 0.76840 0.80494 0.09550 0.00000
C241 C 0.76713 0.84965 0.12256 0.00000
C242 C 0.74616 0.83748 0.06188 0.00000
C243 C 0.96420 0.83862 0.19279 0.00000
C244 C 0.86985 0.79235 0.03163 0.00000
C245 C 0.86333 0.82633 0.07806 0.00000
C246 C 0.87643 0.81814 0.05130 0.00000
C247 C 0.79291 0.79195 0.22879 0.00000
C248 C 0.76025 0.75226 0.18394 0.00000
C249 C 0.87512 0.80522 0.26581 0.00000
C250 C 0.87772 0.80707 0.30066 0.00000
C251 C 0.78609 0.76061 0.17883 0.00000
C252 C 0.76681 0.78363 0.23447 0.00000
C253 C 0.89043 0.85394 0.30763 0.00000
C254 C 0.74999 0.76286 0.21275 0.00000
C255 C 0.88547 0.83165 0.32302 0.00000
N256 N 0.87691 0.76987 0.16899 0.00000
N257 N 0.83862 0.88608 0.14462 0.00000
N258 N 0.81319 0.86962 0.22565 0.00000
N259 N 0.88072 0.82763 0.25181 0.00000
N260 N 0.84392 0.80944 0.08608 0.00000
N261 N 0.77487 0.82423 0.12400 0.00000
N262 N 0.90776 0.84568 0.16721 0.00000
N263 N 0.80207 0.77986 0.20097 0.00000
O264 O 0.82682 0.86948 0.16161 0.00000
O265 O 0.86745 0.78899 0.15107 0.00000
O266 O 0.82501 0.84622 0.22282 0.00000
O267 O 0.13538 0.84141 0.14562 0.00000
Eu268 Eu 0.13317 0.85565 0.20382 0.00000
O269 O 0.13461 0.80717 0.19559 0.00000
O270 O 0.11099 0.89062 0.17401 0.00000
O271 O 0.17352 0.84632 0.24458 0.00000
O272 O 0.13979 0.89482 0.24587 0.00000
H273 H 0.09691 0.79473 0.23513 0.00000
H274 H 0.17786 0.92443 0.23120 0.00000
H275 H 0.21708 0.94298 0.27505 0.00000
H276 H 0.22108 0.86045 0.20620 0.00000
H277 H 0.01576 0.89054 0.14319 0.00000
H278 H 0.04747 0.87486 0.18580 0.00000
H279 H 0.05025 0.77509 0.22526 0.00000
H280 H 0.06802 0.86729 0.25803 0.00000
H281 H 0.08012 0.82830 0.11597 0.00000
H282 H 0.02172 0.84814 0.24809 0.00000
H283 H 0.05034 0.84479 0.07171 0.00000
H284 H 0.26002 0.87781 0.25011 0.00000
H285 H 0.18277 0.83690 0.12856 0.00000
H286 H 0.14558 0.76308 0.09816 0.00000
H287 H 0.09964 0.90875 0.27474 0.00000
H288 H 0.19774 0.85402 0.08355 0.00000
H289 H 0.14885 0.91717 0.15635 0.00000
H290 H 0.08745 0.92356 0.21029 0.00000
H291 H 0.06670 0.76211 0.11785 0.00000
H292 H 0.10044 0.96977 0.22874 0.00000
H293 H 0.16232 0.96341 0.17332 0.00000
H294 H 0.16247 0.78987 0.15101 0.00000
H295 H 0.08384 0.78913 0.17060 0.00000
H296 H 0.11108 0.87522 0.11147 0.00000
H297 H 0.12536 0.89318 0.06714 0.00000
H298 H 0.15437 0.82734 0.29062 0.00000
H299 H 0.21596 0.77225 0.24397 0.00000
H300 H 0.18053 0.88847 0.29484 0.00000
H301 H 0.18148 0.89654 0.35325 0.00000
H302 H 0.20520 0.81203 0.22447 0.00000
H303 H 0.16501 0.78737 0.31145 0.00000
H304 H 0.09912 0.91519 0.33314 0.00000
C305 C 0.08146 0.80575 0.23757 0.00000
C306 C 0.19461 0.91479 0.23557 0.00000
C307 C 0.24224 0.91181 0.26794 0.00000
C308 C 0.21797 0.92583 0.26171 0.00000
C309 C 0.21999 0.87697 0.22082 0.00000
C310 C 0.02901 0.87799 0.13706 0.00000
C311 C 0.02921 0.86936 0.10221 0.00000
C312 C 0.04771 0.86851 0.16228 0.00000
C313 C 0.05348 0.79417 0.23111 0.00000
C314 C 0.06443 0.84832 0.25091 0.00000
C315 C 0.06711 0.84135 0.12121 0.00000
C316 C 0.03084 0.80955 0.23303 0.00000
C317 C 0.03685 0.83699 0.24455 0.00000
C318 C 0.04918 0.85085 0.09502 0.00000
C319 C 0.24321 0.88745 0.24680 0.00000
C320 C 0.17076 0.84781 0.11520 0.00000
C321 C 0.13262 0.76867 0.11255 0.00000
C322 C 0.11630 0.90598 0.29098 0.00000
C323 C 0.17967 0.85816 0.08852 0.00000
C324 C 0.13923 0.92802 0.17138 0.00000
C325 C 0.10305 0.93184 0.20336 0.00000
C326 C 0.08635 0.76807 0.12404 0.00000
C327 C 0.11073 0.95930 0.21413 0.00000
C328 C 0.14722 0.95547 0.18148 0.00000
C329 C 0.14273 0.78421 0.14399 0.00000
C330 C 0.09650 0.78383 0.15564 0.00000
C331 C 0.10358 0.76068 0.10100 0.00000
C332 C 0.13295 0.97122 0.20363 0.00000
C333 C 0.16267 0.87424 0.06901 0.00000
C334 C 0.12857 0.87051 0.10507 0.00000
C335 C 0.13702 0.88106 0.07885 0.00000
C336 C 0.16740 0.81597 0.28141 0.00000
C337 C 0.20365 0.78364 0.25455 0.00000
C338 C 0.16398 0.89426 0.30285 0.00000
C339 C 0.16443 0.89892 0.33741 0.00000
C340 C 0.19708 0.80706 0.24267 0.00000
C341 C 0.17394 0.79236 0.29390 0.00000
C342 C 0.11610 0.91012 0.32579 0.00000
C343 C 0.19305 0.77581 0.28159 0.00000
C344 C 0.14035 0.90703 0.35027 0.00000
N345 N 0.19593 0.89032 0.21648 0.00000
N346 N 0.06631 0.85068 0.15493 0.00000
N347 N 0.08630 0.83283 0.24725 0.00000
N348 N 0.13974 0.89803 0.27965 0.00000
N349 N 0.14511 0.85343 0.12211 0.00000
N350 N 0.12455 0.79165 0.16522 0.00000
N351 N 0.11800 0.91710 0.18288 0.00000
N352 N 0.17953 0.82289 0.25607 0.00000
O353 O 0.08389 0.84124 0.17995 0.00000
O354 O 0.17342 0.87996 0.19258 0.00000
O355 O 0.11235 0.84411 0.25116 0.00000
O356 O 0.11340 0.14002 0.17787 0.00000
Eu357 Eu 0.16044 0.12743 0.17889 0.00000
O358 O 0.16089 0.17552 0.17913 0.00000
O359 O 0.13099 0.08674 0.15146 0.00000
O360 O 0.19428 0.14716 0.22916 0.00000
O361 O 0.18957 0.09155 0.19002 0.00000
H362 H 0.19806 0.18074 0.13620 0.00000
H363 H 0.17074 0.07025 0.23518 0.00000
H364 H 0.20294 0.06221 0.28485 0.00000
H365 H 0.15733 0.14252 0.28394 0.00000
H366 H 0.10973 0.06434 0.03613 0.00000
H367 H 0.14654 0.08848 0.07607 0.00000
H368 H 0.19508 0.18936 0.07959 0.00000
H369 H 0.20765 0.10312 0.10458 0.00000
H370 H 0.09314 0.13956 0.11001 0.00000
H371 H 0.20451 0.11133 0.04841 0.00000
H372 H 0.05472 0.11498 0.07229 0.00000
H373 H 0.18979 0.13560 0.33326 0.00000
H374 H 0.09733 0.15455 0.23330 0.00000
H375 H 0.08489 0.21830 0.18566 0.00000
H376 H 0.21379 0.06970 0.14410 0.00000
H377 H 0.05596 0.13939 0.24891 0.00000
H378 H 0.11011 0.06833 0.19613 0.00000
H379 H 0.15771 0.05005 0.12617 0.00000
H380 H 0.10559 0.20221 0.09274 0.00000
H381 H 0.16553 0.00781 0.14367 0.00000
H382 H 0.11664 0.02611 0.21413 0.00000
H383 H 0.12454 0.19738 0.20941 0.00000
H384 H 0.14510 0.18111 0.11677 0.00000
H385 H 0.08058 0.09986 0.14763 0.00000
H386 H 0.03968 0.08373 0.16247 0.00000
H387 H 0.23701 0.16326 0.20859 0.00000
H388 H 0.20306 0.23010 0.27818 0.00000
H389 H 0.22986 0.10870 0.24129 0.00000
H390 H 0.27788 0.10294 0.24596 0.00000
H391 H 0.18101 0.18757 0.26506 0.00000
H392 H 0.26022 0.20599 0.22164 0.00000
H393 H 0.26213 0.06524 0.14699 0.00000
C394 C 0.19919 0.16643 0.11815 0.00000
C395 C 0.17507 0.08372 0.25520 0.00000
C396 C 0.20048 0.09852 0.31380 0.00000
C397 C 0.19428 0.07894 0.28479 0.00000
C398 C 0.16719 0.12641 0.28383 0.00000
C399 C 0.10583 0.07953 0.05131 0.00000
C400 C 0.07773 0.08693 0.04936 0.00000
C401 C 0.12765 0.09402 0.07486 0.00000
C402 C 0.19692 0.17139 0.08418 0.00000
C403 C 0.20474 0.12086 0.09950 0.00000
C404 C 0.09620 0.12387 0.09506 0.00000
C405 C 0.19729 0.15112 0.05761 0.00000
C406 C 0.20249 0.12566 0.06601 0.00000
C407 C 0.07352 0.10952 0.07237 0.00000
C408 C 0.18635 0.12214 0.31324 0.00000
C409 C 0.08498 0.14058 0.21843 0.00000
C410 C 0.09683 0.21035 0.17116 0.00000
C411 C 0.22710 0.07676 0.16485 0.00000
C412 C 0.06042 0.13139 0.22773 0.00000
C413 C 0.12161 0.05593 0.18575 0.00000
C414 C 0.14982 0.04512 0.14454 0.00000
C415 C 0.10892 0.20094 0.11665 0.00000
C416 C 0.15430 0.01999 0.15487 0.00000
C417 C 0.12551 0.03087 0.19643 0.00000
C418 C 0.12047 0.19831 0.18535 0.00000
C419 C 0.13266 0.18869 0.13090 0.00000
C420 C 0.08976 0.21134 0.13571 0.00000
C421 C 0.14249 0.01282 0.18102 0.00000
C422 C 0.04232 0.11096 0.20667 0.00000
C423 C 0.07503 0.10824 0.16802 0.00000
C424 C 0.05085 0.09877 0.17679 0.00000
C425 C 0.23034 0.17714 0.22335 0.00000
C426 C 0.21085 0.21641 0.26436 0.00000
C427 C 0.23655 0.09952 0.22214 0.00000
C428 C 0.26499 0.09620 0.22476 0.00000
C429 C 0.19754 0.19130 0.25632 0.00000
C430 C 0.24420 0.20245 0.23139 0.00000
C431 C 0.25585 0.07382 0.16670 0.00000
C432 C 0.23541 0.22273 0.25312 0.00000
C433 C 0.27579 0.08319 0.19696 0.00000
N434 N 0.16266 0.10761 0.25517 0.00000
N435 N 0.12326 0.11561 0.09625 0.00000
N436 N 0.20294 0.14100 0.12505 0.00000
N437 N 0.21760 0.08953 0.19198 0.00000
N438 N 0.09122 0.12947 0.18837 0.00000
N439 N 0.13815 0.18758 0.16505 0.00000
N440 N 0.13406 0.06237 0.16087 0.00000
N441 N 0.20729 0.17213 0.23650 0.00000
O442 O 0.14496 0.12979 0.11845 0.00000
O443 O 0.14521 0.11199 0.22673 0.00000
O444 O 0.20321 0.13582 0.15655 0.00000
O445 O 0.86792 0.88118 0.79002 0.00000
Eu446 Eu 0.88858 0.84017 0.79830 0.00000
O447 O 0.83753 0.83192 0.79017 0.00000
O448 O 0.92598 0.87436 0.82770 0.00000
O449 O 0.87524 0.80486 0.75043 0.00000
O450 O 0.93174 0.81910 0.79769 0.00000
H451 H 0.83560 0.79802 0.83752 0.00000
H452 H 0.95369 0.83879 0.75360 0.00000
H453 H 0.96959 0.80952 0.71066 0.00000
H454 H 0.87715 0.83819 0.69129 0.00000
H455 H 0.94095 0.90005 0.94237 0.00000
H456 H 0.92286 0.86154 0.90446 0.00000
H457 H 0.82323 0.80062 0.89170 0.00000
H458 H 0.91807 0.80260 0.88316 0.00000
H459 H 0.86201 0.90132 0.85421 0.00000
H460 H 0.90613 0.80539 0.93695 0.00000
H461 H 0.88042 0.94133 0.88975 0.00000
H462 H 0.89189 0.80851 0.64856 0.00000
H463 H 0.85270 0.89227 0.73026 0.00000
H464 H 0.78069 0.89434 0.76498 0.00000
H465 H 0.95646 0.80153 0.85049 0.00000
H466 H 0.86322 0.93225 0.71097 0.00000
H467 H 0.94452 0.89546 0.78331 0.00000
H468 H 0.96787 0.85645 0.86292 0.00000
H469 H 0.79647 0.88011 0.86284 0.00000
H470 H 0.01484 0.85579 0.85377 0.00000
H471 H 0.99129 0.89595 0.77347 0.00000
H472 H 0.81017 0.86094 0.75100 0.00000
H473 H 0.82614 0.84686 0.84859 0.00000
H474 H 0.90412 0.91844 0.82159 0.00000
H475 H 0.91571 0.95816 0.80330 0.00000
H476 H 0.86368 0.76360 0.77469 0.00000
H477 H 0.79078 0.78221 0.68949 0.00000
H478 H 0.92218 0.77829 0.75024 0.00000
H479 H 0.93589 0.73519 0.75392 0.00000
H480 H 0.83197 0.80961 0.70615 0.00000
H481 H 0.82244 0.73510 0.75824 0.00000
H482 H 0.96876 0.75796 0.85578 0.00000
C483 C 0.85012 0.79972 0.85794 0.00000
C484 C 0.94100 0.83218 0.73220 0.00000
C485 C 0.93202 0.80520 0.67561 0.00000
C486 C 0.95047 0.81472 0.70663 0.00000
C487 C 0.89579 0.83180 0.69557 0.00000
C488 C 0.92493 0.90080 0.92423 0.00000
C489 C 0.91266 0.92536 0.92062 0.00000
C490 C 0.91402 0.87795 0.90184 0.00000
C491 C 0.84285 0.80176 0.89042 0.00000
C492 C 0.89851 0.80248 0.88481 0.00000
C493 C 0.87844 0.90142 0.87208 0.00000
C494 C 0.86317 0.80531 0.92015 0.00000
C495 C 0.89143 0.80452 0.91684 0.00000
C496 C 0.88911 0.92501 0.89345 0.00000
C497 C 0.90470 0.81430 0.67009 0.00000
C498 C 0.86494 0.90619 0.74540 0.00000
C499 C 0.79028 0.88505 0.78248 0.00000
C500 C 0.95200 0.78774 0.83081 0.00000
C501 C 0.87138 0.92995 0.73395 0.00000
C502 C 0.95897 0.88719 0.79740 0.00000
C503 C 0.97280 0.86406 0.84433 0.00000
C504 C 0.79949 0.87673 0.83989 0.00000
C505 C 0.00010 0.86383 0.83894 0.00000
C506 C 0.98673 0.88747 0.79157 0.00000
C507 C 0.80739 0.86505 0.77404 0.00000
C508 C 0.81685 0.85669 0.83144 0.00000
C509 C 0.78642 0.89215 0.81635 0.00000
C510 C 0.00779 0.87521 0.81242 0.00000
C511 C 0.88931 0.95031 0.75542 0.00000
C512 C 0.89535 0.92169 0.79916 0.00000
C513 C 0.90213 0.94516 0.78834 0.00000
C514 C 0.84861 0.76711 0.75675 0.00000
C515 C 0.80586 0.77763 0.70665 0.00000
C516 C 0.93203 0.77409 0.77175 0.00000
C517 C 0.94006 0.74856 0.77406 0.00000
C518 C 0.83012 0.79408 0.71672 0.00000
C519 C 0.82422 0.75013 0.74672 0.00000
C520 C 0.95963 0.76186 0.83387 0.00000
C521 C 0.80237 0.75438 0.72050 0.00000
C522 C 0.95420 0.74142 0.80540 0.00000
N523 N 0.91369 0.83965 0.72638 0.00000
N524 N 0.89143 0.87797 0.87642 0.00000
N525 N 0.87806 0.80027 0.85590 0.00000
N526 N 0.93829 0.79374 0.80037 0.00000
N527 N 0.87624 0.90296 0.77797 0.00000
N528 N 0.82053 0.85108 0.79863 0.00000
N529 N 0.95282 0.87531 0.82288 0.00000
N530 N 0.85104 0.78872 0.74102 0.00000
O531 O 0.88076 0.85530 0.85540 0.00000
O532 O 0.90498 0.85555 0.75114 0.00000
O533 O 0.88514 0.80016 0.82559 0.00000
O534 O 0.20315 0.89904 0.90515 0.00000
Eu535 Eu 0.19072 0.89656 0.84466 0.00000
O536 O 0.24221 0.89927 0.86067 0.00000
O537 O 0.15036 0.91616 0.86484 0.00000
O538 O 0.20547 0.85772 0.81287 0.00000
O539 O 0.15144 0.88510 0.79793 0.00000
H540 H 0.25495 0.93247 0.81650 0.00000
H541 H 0.12163 0.84883 0.81476 0.00000
H542 H 0.10667 0.80881 0.77535 0.00000
H543 H 0.19165 0.81528 0.85741 0.00000
H544 H 0.14246 0.00552 0.87831 0.00000
H545 H 0.16350 0.97499 0.84411 0.00000
H546 H 0.27228 0.97737 0.82096 0.00000
H547 H 0.17662 0.95235 0.77719 0.00000
H548 H 0.21193 0.95255 0.92670 0.00000
H549 H 0.19345 0.99689 0.78171 0.00000
H550 H 0.19007 0.98135 0.96276 0.00000
H551 H 0.17794 0.77560 0.81806 0.00000
H552 H 0.21030 0.85684 0.93136 0.00000
H553 H 0.28514 0.89823 0.96641 0.00000
H554 H 0.13529 0.91926 0.75981 0.00000
H555 H 0.19075 0.84451 0.97614 0.00000
H556 H 0.12365 0.88048 0.88508 0.00000
H557 H 0.11539 0.93322 0.81938 0.00000
H558 H 0.28185 0.96960 0.93275 0.00000
H559 H 0.06782 0.91681 0.79615 0.00000
H560 H 0.07600 0.86371 0.86342 0.00000
H561 H 0.26032 0.87759 0.91272 0.00000
H562 H 0.25679 0.94874 0.87918 0.00000
H563 H 0.16366 0.92093 0.92943 0.00000
H564 H 0.14320 0.90915 0.97328 0.00000
H565 H 0.22678 0.87397 0.76661 0.00000
H566 H 0.28746 0.82418 0.83270 0.00000
H567 H 0.16344 0.84520 0.75758 0.00000
H568 H 0.15783 0.84025 0.69842 0.00000
H569 H 0.24323 0.83232 0.84393 0.00000
H570 H 0.27126 0.86587 0.75406 0.00000
H571 H 0.13133 0.91578 0.70064 0.00000
C572 C 0.24226 0.94571 0.80957 0.00000
C573 C 0.13328 0.83388 0.81494 0.00000
C574 C 0.14131 0.78839 0.79182 0.00000
C575 C 0.12438 0.81004 0.79145 0.00000
C576 C 0.17466 0.81420 0.84010 0.00000
C577 C 0.15644 0.99463 0.88875 0.00000
C578 C 0.16393 0.99715 0.92479 0.00000
C579 C 0.16911 0.97663 0.86854 0.00000
C580 C 0.25241 0.97266 0.81275 0.00000
C581 C 0.19628 0.95745 0.78658 0.00000
C582 C 0.19737 0.96324 0.91711 0.00000
C583 C 0.23454 0.99223 0.80436 0.00000
C584 C 0.20620 0.98401 0.78970 0.00000
C585 C 0.18469 0.98058 0.93843 0.00000
C586 C 0.16634 0.79054 0.81681 0.00000
C587 C 0.19716 0.86787 0.94077 0.00000
C588 C 0.27902 0.90887 0.94889 0.00000
C589 C 0.14019 0.90318 0.74710 0.00000
C590 C 0.18536 0.86052 0.96729 0.00000
C591 C 0.11216 0.88763 0.86671 0.00000
C592 C 0.10725 0.91869 0.82778 0.00000
C593 C 0.27712 0.95075 0.92921 0.00000
C594 C 0.07897 0.90899 0.81417 0.00000
C595 C 0.08388 0.87768 0.85382 0.00000
C596 C 0.26469 0.89656 0.91702 0.00000
C597 C 0.26255 0.93838 0.89716 0.00000
C598 C 0.28501 0.93682 0.95637 0.00000
C599 C 0.06721 0.88832 0.82677 0.00000
C600 C 0.16605 0.87613 0.98111 0.00000
C601 C 0.16955 0.90559 0.93969 0.00000
C602 C 0.15753 0.89862 0.96563 0.00000
C603 C 0.23934 0.86337 0.77989 0.00000
C604 C 0.27498 0.83402 0.81818 0.00000
C605 C 0.15655 0.85951 0.74573 0.00000
C606 C 0.15334 0.85670 0.71072 0.00000
C607 C 0.24891 0.83906 0.82515 0.00000
C608 C 0.26565 0.85834 0.77234 0.00000
C609 C 0.13752 0.90099 0.71181 0.00000
C610 C 0.28400 0.84272 0.79061 0.00000
C611 C 0.14370 0.87747 0.69233 0.00000
N612 N 0.15855 0.83559 0.83798 0.00000
N613 N 0.18904 0.96128 0.88198 0.00000
N614 N 0.21413 0.93870 0.79659 0.00000
N615 N 0.14971 0.88289 0.76383 0.00000
N616 N 0.18977 0.89062 0.92840 0.00000
N617 N 0.25657 0.91146 0.89148 0.00000
N618 N 0.12298 0.90726 0.85314 0.00000
N619 N 0.23149 0.85323 0.80619 0.00000
O620 O 0.20158 0.94433 0.86175 0.00000
O621 O 0.16689 0.85846 0.85930 0.00000
O622 O 0.20403 0.91371 0.79564 0.00000
O623 O 0.17956 0.18186 0.88517 0.00000
Eu624 Eu 0.17502 0.17006 0.82499 0.00000
O625 O 0.17518 0.21858 0.83747 0.00000
O626 O 0.15533 0.13036 0.84221 0.00000
O627 O 0.21341 0.18707 0.80308 0.00000
O628 O 0.18103 0.13366 0.78304 0.00000
H629 H 0.13483 0.22770 0.78198 0.00000
H630 H 0.22115 0.10854 0.81256 0.00000
H631 H 0.25922 0.09753 0.78498 0.00000
H632 H 0.26369 0.17770 0.86170 0.00000
H633 H 0.06081 0.11557 0.83027 0.00000
H634 H 0.09017 0.13784 0.80310 0.00000
H635 H 0.08759 0.24041 0.77237 0.00000
H636 H 0.10714 0.15184 0.74074 0.00000
H637 H 0.12483 0.18584 0.89098 0.00000
H638 H 0.06028 0.16409 0.73132 0.00000
H639 H 0.09752 0.16294 0.92060 0.00000
H640 H 0.30143 0.16785 0.83401 0.00000
H641 H 0.22800 0.19222 0.92382 0.00000
H642 H 0.18940 0.25971 0.94300 0.00000
H643 H 0.13965 0.11541 0.73515 0.00000
H644 H 0.24586 0.17493 0.97422 0.00000
H645 H 0.19527 0.10814 0.87486 0.00000
H646 H 0.13099 0.09570 0.79296 0.00000
H647 H 0.10891 0.25056 0.88801 0.00000
H648 H 0.14480 0.05197 0.77690 0.00000
H649 H 0.20964 0.06438 0.86051 0.00000
H650 H 0.20481 0.23772 0.89579 0.00000
H651 H 0.12458 0.22837 0.84100 0.00000
H652 H 0.15789 0.14281 0.90586 0.00000
H653 H 0.17505 0.12462 0.95521 0.00000
H654 H 0.19122 0.20569 0.74991 0.00000
H655 H 0.25363 0.26745 0.82824 0.00000
H656 H 0.21952 0.14813 0.75287 0.00000
H657 H 0.21794 0.14299 0.69435 0.00000
H658 H 0.24512 0.22501 0.83993 0.00000
H659 H 0.19954 0.24836 0.73685 0.00000
H660 H 0.13653 0.11171 0.67610 0.00000
C661 C 0.11953 0.21458 0.77180 0.00000
C662 C 0.23749 0.12079 0.81644 0.00000
C663 C 0.28384 0.13205 0.80570 0.00000
C664 C 0.26016 0.11424 0.79999 0.00000
C665 C 0.26247 0.16165 0.84538 0.00000
C666 C 0.07402 0.12973 0.84327 0.00000
C667 C 0.07560 0.13675 0.87882 0.00000
C668 C 0.09132 0.14312 0.82718 0.00000
C669 C 0.09123 0.22197 0.76655 0.00000
C670 C 0.10320 0.17005 0.74765 0.00000
C671 C 0.11191 0.17114 0.87893 0.00000
C672 C 0.06885 0.20343 0.75333 0.00000
C673 C 0.07531 0.17725 0.74248 0.00000
C674 C 0.09544 0.15781 0.89634 0.00000
C675 C 0.28499 0.15564 0.82906 0.00000
C676 C 0.21692 0.17892 0.93096 0.00000
C677 C 0.17584 0.25297 0.92239 0.00000
C678 C 0.15557 0.12132 0.72661 0.00000
C679 C 0.22755 0.16848 0.96084 0.00000
C680 C 0.18522 0.09661 0.85472 0.00000
C681 C 0.14734 0.08924 0.80626 0.00000
C682 C 0.12862 0.24763 0.89020 0.00000
C683 C 0.15551 0.06323 0.79689 0.00000
C684 C 0.19375 0.07063 0.84618 0.00000
C685 C 0.18505 0.24030 0.89436 0.00000
C686 C 0.13788 0.23475 0.86201 0.00000
C687 C 0.14685 0.25636 0.92149 0.00000
C688 C 0.17884 0.05387 0.81647 0.00000
C689 C 0.21191 0.14899 0.97150 0.00000
C690 C 0.17567 0.14969 0.92046 0.00000
C691 C 0.18581 0.13901 0.94965 0.00000
C692 C 0.20440 0.21850 0.76580 0.00000
C693 C 0.24111 0.25478 0.81130 0.00000
C694 C 0.20265 0.14039 0.73702 0.00000
C695 C 0.20160 0.13744 0.70235 0.00000
C696 C 0.23588 0.22975 0.81848 0.00000
C697 C 0.20957 0.24376 0.75802 0.00000
C698 C 0.15383 0.11883 0.69144 0.00000
C699 C 0.22885 0.26248 0.78012 0.00000
C700 C 0.17699 0.12653 0.67810 0.00000
N701 N 0.23889 0.14464 0.83792 0.00000
N702 N 0.10981 0.16329 0.84420 0.00000
N703 N 0.12489 0.18851 0.76228 0.00000
N704 N 0.17947 0.13206 0.74903 0.00000
N705 N 0.19093 0.17000 0.91213 0.00000
N706 N 0.16596 0.23129 0.86445 0.00000
N707 N 0.16288 0.10515 0.83452 0.00000
N708 N 0.21810 0.21202 0.79604 0.00000
O709 O 0.12599 0.17646 0.82779 0.00000
O710 O 0.21699 0.15073 0.85246 0.00000
O711 O 0.15135 0.18102 0.76922 0.00000
O712 O 0.65543 0.63013 0.32709 0.00000
Eu713 Eu 0.63911 0.62066 0.26669 0.00000
O714 O 0.65002 0.66875 0.28184 0.00000
O715 O 0.61704 0.58411 0.28775 0.00000
O716 O 0.67328 0.63136 0.23432 0.00000
O717 O 0.63100 0.58431 0.22048 0.00000
H718 H 0.60576 0.68643 0.23756 0.00000
H719 H 0.66784 0.55135 0.23764 0.00000
H720 H 0.69576 0.53428 0.19815 0.00000
H721 H 0.72703 0.61158 0.27892 0.00000
H722 H 0.52668 0.58648 0.30197 0.00000
H723 H 0.55273 0.60417 0.26712 0.00000
H724 H 0.56358 0.70777 0.24201 0.00000
H725 H 0.56015 0.61668 0.19968 0.00000
H726 H 0.60749 0.64370 0.34889 0.00000
H727 H 0.51828 0.63749 0.20420 0.00000
H728 H 0.58360 0.62496 0.38560 0.00000
H729 H 0.75484 0.59572 0.23947 0.00000
H730 H 0.70769 0.63087 0.35297 0.00000
H731 H 0.68797 0.70463 0.38703 0.00000
H732 H 0.58218 0.57467 0.18278 0.00000
H733 H 0.72925 0.60917 0.39811 0.00000
H734 H 0.65476 0.55400 0.30828 0.00000
H735 H 0.58051 0.55509 0.24292 0.00000
H736 H 0.60413 0.71122 0.35381 0.00000
H737 H 0.58252 0.50939 0.22039 0.00000
H738 H 0.65756 0.50813 0.28731 0.00000
H739 H 0.69009 0.68112 0.33353 0.00000
H740 H 0.60648 0.68745 0.30044 0.00000
H741 H 0.63227 0.59450 0.35228 0.00000
H742 H 0.65285 0.57205 0.39651 0.00000
H743 H 0.64756 0.65522 0.18768 0.00000
H744 H 0.72835 0.70379 0.25251 0.00000
H745 H 0.66343 0.59266 0.17957 0.00000
H746 H 0.65126 0.58927 0.12035 0.00000
H747 H 0.71500 0.66265 0.26461 0.00000
H748 H 0.66055 0.69666 0.17426 0.00000
H749 H 0.56879 0.57301 0.12354 0.00000
C750 C 0.58783 0.67632 0.23092 0.00000
C751 C 0.68550 0.56057 0.23752 0.00000
C752 C 0.72774 0.56382 0.21391 0.00000
C753 C 0.70213 0.55041 0.21398 0.00000
C754 C 0.72031 0.59619 0.26186 0.00000
C755 C 0.54338 0.59795 0.31211 0.00000
C756 C 0.55204 0.60378 0.34811 0.00000
C757 C 0.55876 0.60862 0.29151 0.00000
C758 C 0.56261 0.68887 0.23410 0.00000
C759 C 0.56100 0.63538 0.20877 0.00000
C760 C 0.59113 0.63163 0.33960 0.00000
C761 C 0.53678 0.67468 0.22614 0.00000
C762 C 0.53613 0.64767 0.21190 0.00000
C763 C 0.57672 0.62083 0.36130 0.00000
C764 C 0.73692 0.58658 0.23853 0.00000
C765 C 0.69646 0.61939 0.36270 0.00000
C766 C 0.67102 0.70083 0.36965 0.00000
C767 C 0.59624 0.57795 0.16986 0.00000
C768 C 0.70924 0.60633 0.38944 0.00000
C769 C 0.64021 0.54479 0.29012 0.00000
C770 C 0.59641 0.54539 0.25140 0.00000
C771 C 0.62184 0.70472 0.35023 0.00000
C772 C 0.59760 0.51822 0.23819 0.00000
C773 C 0.64186 0.51756 0.27764 0.00000
C774 C 0.67240 0.68725 0.33789 0.00000
C775 C 0.62320 0.69092 0.31829 0.00000
C776 C 0.64518 0.70940 0.37722 0.00000
C777 C 0.62036 0.50423 0.25089 0.00000
C778 C 0.69337 0.58939 0.40373 0.00000
C779 C 0.65207 0.59783 0.36235 0.00000
C780 C 0.66425 0.58463 0.38852 0.00000
C781 C 0.66447 0.66526 0.20070 0.00000
C782 C 0.71189 0.69379 0.23825 0.00000
C783 C 0.64409 0.58833 0.16791 0.00000
C784 C 0.63679 0.58644 0.13286 0.00000
C785 C 0.70387 0.66956 0.24573 0.00000
C786 C 0.67237 0.68974 0.19263 0.00000
C787 C 0.58832 0.57665 0.13452 0.00000
C788 C 0.69691 0.70444 0.21051 0.00000
C789 C 0.60845 0.58054 0.11474 0.00000
N790 N 0.69464 0.58359 0.26017 0.00000
N791 N 0.58198 0.62504 0.30454 0.00000
N792 N 0.58642 0.64958 0.21837 0.00000
N793 N 0.62360 0.58385 0.18632 0.00000
N794 N 0.66814 0.61559 0.35058 0.00000
N795 N 0.64846 0.68241 0.31253 0.00000
N796 N 0.61809 0.55780 0.27646 0.00000
N797 N 0.68081 0.65560 0.22713 0.00000
O798 O 0.59626 0.63571 0.28393 0.00000
O799 O 0.67831 0.59321 0.28153 0.00000
O800 O 0.61024 0.63722 0.21743 0.00000
O801 O 0.38514 0.69510 0.35600 0.00000
Eu802 Eu 0.33984 0.68230 0.36516 0.00000
O803 O 0.34289 0.73079 0.36941 0.00000
O804 O 0.36928 0.64642 0.38262 0.00000
O805 O 0.30081 0.69269 0.32333 0.00000
O806 O 0.30792 0.64403 0.35747 0.00000
H807 H 0.31574 0.74435 0.42311 0.00000
H808 H 0.31628 0.61386 0.30443 0.00000
H809 H 0.27686 0.59633 0.26028 0.00000
H810 H 0.32574 0.67746 0.25753 0.00000
H811 H 0.40751 0.64580 0.49429 0.00000
H812 H 0.36779 0.66262 0.46423 0.00000
H813 H 0.32894 0.76387 0.48152 0.00000
H814 H 0.30652 0.67208 0.45095 0.00000
H815 H 0.41585 0.70756 0.42100 0.00000
H816 H 0.31975 0.69110 0.50883 0.00000
H817 H 0.45667 0.68987 0.44835 0.00000
H818 H 0.28622 0.66111 0.21390 0.00000
H819 H 0.39174 0.69914 0.29632 0.00000
H820 H 0.41631 0.77255 0.34821 0.00000
H821 H 0.29149 0.63081 0.40865 0.00000
H822 H 0.42683 0.68076 0.26884 0.00000
H823 H 0.37985 0.61925 0.32985 0.00000
H824 H 0.34585 0.61428 0.41179 0.00000
H825 H 0.41170 0.77412 0.44751 0.00000
H826 H 0.33240 0.56832 0.39179 0.00000
H827 H 0.36752 0.57322 0.30903 0.00000
H828 H 0.37342 0.74699 0.33141 0.00000
H829 H 0.36889 0.74832 0.43037 0.00000
H830 H 0.41827 0.66027 0.37557 0.00000
H831 H 0.45297 0.64106 0.34893 0.00000
H832 H 0.26537 0.71297 0.35633 0.00000
H833 H 0.29016 0.76705 0.28249 0.00000
H834 H 0.26247 0.65163 0.31592 0.00000
H835 H 0.21612 0.64504 0.32218 0.00000
H836 H 0.31004 0.72658 0.28681 0.00000
H837 H 0.24443 0.75365 0.35238 0.00000
H838 H 0.24524 0.62587 0.41695 0.00000
C839 C 0.31675 0.73336 0.44068 0.00000
C840 C 0.30973 0.62364 0.28607 0.00000
C841 C 0.27683 0.62743 0.23316 0.00000
C842 C 0.28624 0.61321 0.25978 0.00000
C843 C 0.31533 0.66124 0.25855 0.00000
C844 C 0.40967 0.65822 0.47909 0.00000
C845 C 0.43695 0.66600 0.47498 0.00000
C846 C 0.38616 0.66839 0.46141 0.00000
C847 C 0.32511 0.74485 0.47560 0.00000
C848 C 0.31142 0.69095 0.45710 0.00000
C849 C 0.41442 0.69459 0.43571 0.00000
C850 C 0.32786 0.72947 0.50122 0.00000
C851 C 0.31967 0.70219 0.49150 0.00000
C852 C 0.43859 0.68439 0.45231 0.00000
C853 C 0.29193 0.65135 0.23248 0.00000
C854 C 0.40490 0.68784 0.30737 0.00000
C855 C 0.40701 0.76732 0.36531 0.00000
C856 C 0.27592 0.63400 0.39113 0.00000
C857 C 0.42571 0.67675 0.29102 0.00000
C858 C 0.36993 0.60875 0.34219 0.00000
C859 C 0.34974 0.60577 0.39050 0.00000
C860 C 0.40436 0.76827 0.42356 0.00000
C861 C 0.34191 0.57845 0.37864 0.00000
C862 C 0.36260 0.58142 0.32985 0.00000
C863 C 0.38146 0.75252 0.35531 0.00000
C864 C 0.37870 0.75324 0.41350 0.00000
C865 C 0.41984 0.77508 0.40023 0.00000
C866 C 0.34798 0.56618 0.34819 0.00000
C867 C 0.44486 0.66011 0.30649 0.00000
C868 C 0.42058 0.66482 0.35398 0.00000
C869 C 0.44110 0.65353 0.33823 0.00000
C870 C 0.27011 0.72414 0.34077 0.00000
C871 C 0.28422 0.75589 0.29737 0.00000
C872 C 0.25881 0.64605 0.33644 0.00000
C873 C 0.23139 0.64226 0.34030 0.00000
C874 C 0.29629 0.73206 0.30015 0.00000
C875 C 0.25755 0.74818 0.33814 0.00000
C876 C 0.24836 0.63075 0.39590 0.00000
C877 C 0.26354 0.76447 0.31547 0.00000
C878 C 0.22509 0.63447 0.37038 0.00000
N879 N 0.32315 0.64773 0.28528 0.00000
N880 N 0.38817 0.68609 0.44028 0.00000
N881 N 0.31017 0.70639 0.43217 0.00000
N882 N 0.28110 0.64168 0.36203 0.00000
N883 N 0.40341 0.68240 0.33885 0.00000
N884 N 0.36757 0.74561 0.37952 0.00000
N885 N 0.36299 0.62003 0.37143 0.00000
N886 N 0.28914 0.71652 0.32118 0.00000
O887 O 0.36498 0.69620 0.42393 0.00000
O888 O 0.34478 0.65754 0.31077 0.00000
O889 O 0.30411 0.69514 0.39928 0.00000
O890 O 0.34906 0.35919 0.39805 0.00000
Eu891 Eu 0.34055 0.36648 0.34013 0.00000
O892 O 0.33954 0.31832 0.33937 0.00000
O893 O 0.36763 0.40725 0.37210 0.00000
O894 O 0.29515 0.34899 0.30672 0.00000
O895 O 0.32748 0.40039 0.30619 0.00000
H896 H 0.36687 0.30353 0.28613 0.00000
H897 H 0.29557 0.42943 0.33723 0.00000
H898 H 0.25134 0.43986 0.30587 0.00000
H899 H 0.25848 0.36462 0.36168 0.00000
H900 H 0.46196 0.41798 0.37898 0.00000
H901 H 0.42409 0.39445 0.34011 0.00000
H902 H 0.41161 0.28829 0.28019 0.00000
H903 H 0.39124 0.37624 0.26933 0.00000
H904 H 0.40567 0.35367 0.41160 0.00000
H905 H 0.43568 0.36148 0.26365 0.00000
H906 H 0.44208 0.37809 0.45284 0.00000
H907 H 0.21447 0.37385 0.32994 0.00000
H908 H 0.30809 0.35331 0.42721 0.00000
H909 H 0.34654 0.28508 0.43420 0.00000
H910 H 0.35974 0.41383 0.26859 0.00000
H911 H 0.30304 0.37518 0.48108 0.00000
H912 H 0.33641 0.43357 0.40557 0.00000
H913 H 0.38353 0.43778 0.33498 0.00000
H914 H 0.41615 0.28739 0.39297 0.00000
H915 H 0.36914 0.48131 0.32850 0.00000
H916 H 0.32185 0.47729 0.40076 0.00000
H917 H 0.32158 0.30435 0.38932 0.00000
H918 H 0.39099 0.30690 0.34831 0.00000
H919 H 0.37890 0.39948 0.43371 0.00000
H920 H 0.37440 0.42218 0.48686 0.00000
H921 H 0.30384 0.32540 0.25032 0.00000
H922 H 0.25396 0.27096 0.30373 0.00000
H923 H 0.28025 0.38486 0.26498 0.00000
H924 H 0.26860 0.38564 0.20645 0.00000
H925 H 0.26861 0.31447 0.32899 0.00000
H926 H 0.28904 0.28155 0.22362 0.00000
H927 H 0.34942 0.41306 0.20935 0.00000
C928 C 0.38104 0.31551 0.28176 0.00000
C929 C 0.27893 0.41790 0.33519 0.00000
C930 C 0.22850 0.40735 0.31362 0.00000
C931 C 0.25258 0.42410 0.31649 0.00000
C932 C 0.25716 0.37960 0.34957 0.00000
C933 C 0.45048 0.40508 0.38628 0.00000
C934 C 0.45662 0.40069 0.42066 0.00000
C935 C 0.42813 0.39095 0.36323 0.00000
C936 C 0.40799 0.30664 0.27879 0.00000
C937 C 0.39544 0.35819 0.27196 0.00000
C938 C 0.41712 0.36719 0.40538 0.00000
C939 C 0.42906 0.32363 0.27393 0.00000
C940 C 0.42200 0.34953 0.26906 0.00000
C941 C 0.43894 0.38139 0.42963 0.00000
C942 C 0.23095 0.38526 0.33088 0.00000
C943 C 0.32203 0.36690 0.44004 0.00000
C944 C 0.35602 0.28989 0.41704 0.00000
C945 C 0.34113 0.40777 0.25562 0.00000
C946 C 0.31901 0.38007 0.47203 0.00000
C947 C 0.34280 0.44338 0.38966 0.00000
C948 C 0.37053 0.44589 0.34787 0.00000
C949 C 0.39687 0.29122 0.39290 0.00000
C950 C 0.36206 0.47179 0.34421 0.00000
C951 C 0.33416 0.46933 0.38678 0.00000
C952 C 0.34110 0.30094 0.39027 0.00000
C953 C 0.38189 0.30248 0.36603 0.00000
C954 C 0.38498 0.28537 0.41977 0.00000
C955 C 0.34366 0.48355 0.36327 0.00000
C956 C 0.33888 0.40004 0.49094 0.00000
C957 C 0.36372 0.39424 0.44397 0.00000
C958 C 0.36106 0.40758 0.47539 0.00000
C959 C 0.29317 0.31409 0.26100 0.00000
C960 C 0.26370 0.28207 0.29183 0.00000
C961 C 0.29427 0.39092 0.25351 0.00000
C962 C 0.28749 0.39128 0.21883 0.00000
C963 C 0.27262 0.30775 0.30706 0.00000
C964 C 0.28416 0.28814 0.24510 0.00000
C965 C 0.33489 0.40761 0.22040 0.00000
C966 C 0.26828 0.27152 0.25954 0.00000
C967 C 0.30767 0.39964 0.20084 0.00000
N968 N 0.28068 0.39542 0.35040 0.00000
N969 N 0.41177 0.37247 0.37216 0.00000
N970 N 0.37540 0.34137 0.27841 0.00000
N971 N 0.32126 0.39942 0.27189 0.00000
N972 N 0.34472 0.37361 0.42730 0.00000
N973 N 0.35421 0.30715 0.36504 0.00000
N974 N 0.36011 0.43244 0.37003 0.00000
N975 N 0.28681 0.32338 0.29175 0.00000
O976 O 0.39049 0.35849 0.34902 0.00000
O977 O 0.30584 0.38957 0.36714 0.00000
O978 O 0.35074 0.35040 0.28344 0.00000
O979 O 0.63512 0.62926 0.66209 0.00000
Eu980 Eu 0.67697 0.60938 0.65151 0.00000
O981 O 0.68422 0.65721 0.65178 0.00000
O982 O 0.63987 0.57325 0.63061 0.00000
O983 O 0.71863 0.62415 0.69461 0.00000
O984 O 0.70051 0.56919 0.65560 0.00000
H985 H 0.71282 0.65627 0.59877 0.00000
H986 H 0.68692 0.55128 0.70633 0.00000
H987 H 0.72305 0.53863 0.74915 0.00000
H988 H 0.69211 0.62574 0.75968 0.00000
H989 H 0.59962 0.55333 0.51791 0.00000
H990 H 0.64309 0.57195 0.54973 0.00000
H991 H 0.70272 0.66487 0.54167 0.00000
H992 H 0.70594 0.57721 0.56386 0.00000
H993 H 0.60608 0.63143 0.59772 0.00000
H994 H 0.69571 0.58543 0.50725 0.00000
H995 H 0.56140 0.61265 0.56856 0.00000
H996 H 0.72859 0.61416 0.80207 0.00000
H997 H 0.63070 0.64669 0.72273 0.00000
H998 H 0.62101 0.71175 0.67730 0.00000
H999 H 0.71287 0.54328 0.60265 0.00000
H1000 H 0.59268 0.63817 0.74884 0.00000
H1001 H 0.62472 0.55852 0.68135 0.00000
H1002 H 0.65556 0.53232 0.59807 0.00000
H1003 H 0.62383 0.69175 0.57719 0.00000
H1004 H 0.65946 0.48917 0.61391 0.00000
H1005 H 0.62751 0.51560 0.69801 0.00000
H1006 H 0.65829 0.68491 0.69174 0.00000
H1007 H 0.66099 0.66475 0.59196 0.00000
H1008 H 0.59455 0.59415 0.63916 0.00000
H1009 H 0.55671 0.58459 0.66434 0.00000
H1010 H 0.75729 0.63335 0.66310 0.00000
H1011 H 0.74587 0.70578 0.74279 0.00000
H1012 H 0.74792 0.58038 0.69813 0.00000
H1013 H 0.79219 0.56719 0.69106 0.00000
H1014 H 0.71750 0.66676 0.73468 0.00000
H1015 H 0.78675 0.67239 0.67085 0.00000
H1016 H 0.75735 0.53131 0.59368 0.00000
C1017 C 0.70911 0.64169 0.58001 0.00000
C1018 C 0.69586 0.56418 0.72577 0.00000
C1019 C 0.73029 0.57541 0.77944 0.00000
C1020 C 0.71740 0.55665 0.75127 0.00000
C1021 C 0.69892 0.60815 0.75709 0.00000
C1022 C 0.60046 0.56920 0.53443 0.00000
C1023 C 0.57524 0.58094 0.53938 0.00000
C1024 C 0.62622 0.58040 0.55317 0.00000
C1025 C 0.70258 0.64672 0.54585 0.00000
C1026 C 0.70499 0.59529 0.55944 0.00000
C1027 C 0.60443 0.61521 0.58165 0.00000
C1028 C 0.69604 0.62626 0.51855 0.00000
C1029 C 0.69852 0.60016 0.52578 0.00000
C1030 C 0.57802 0.60428 0.56400 0.00000
C1031 C 0.72048 0.60114 0.78241 0.00000
C1032 C 0.61507 0.63458 0.71055 0.00000
C1033 C 0.62872 0.70185 0.65952 0.00000
C1034 C 0.72930 0.54840 0.62059 0.00000
C1035 C 0.59247 0.62935 0.72607 0.00000
C1036 C 0.63202 0.54429 0.66788 0.00000
C1037 C 0.65034 0.52879 0.61878 0.00000
C1038 C 0.63033 0.69015 0.60080 0.00000
C1039 C 0.65249 0.50315 0.62817 0.00000
C1040 C 0.63370 0.51881 0.67775 0.00000
C1041 C 0.65102 0.68628 0.66816 0.00000
C1042 C 0.65270 0.67436 0.60948 0.00000
C1043 C 0.61697 0.70365 0.62503 0.00000
C1044 C 0.64452 0.49805 0.65777 0.00000
C1045 C 0.56968 0.61165 0.70894 0.00000
C1046 C 0.59368 0.60352 0.66138 0.00000
C1047 C 0.57133 0.59794 0.67627 0.00000
C1048 C 0.75532 0.64833 0.67988 0.00000
C1049 C 0.74904 0.69081 0.72670 0.00000
C1050 C 0.74991 0.57005 0.67688 0.00000
C1051 C 0.77612 0.56232 0.67255 0.00000
C1052 C 0.73198 0.66783 0.72169 0.00000
C1053 C 0.77291 0.67144 0.68475 0.00000
C1054 C 0.75574 0.54099 0.61540 0.00000
C1055 C 0.77094 0.69318 0.70918 0.00000
C1056 C 0.78006 0.54745 0.64144 0.00000
N1057 N 0.68776 0.58991 0.72886 0.00000
N1058 N 0.62845 0.60277 0.57617 0.00000
N1059 N 0.71003 0.61584 0.58605 0.00000
N1060 N 0.72642 0.56281 0.65070 0.00000
N1061 N 0.61472 0.62231 0.67825 0.00000
N1062 N 0.66277 0.67267 0.64303 0.00000
N1063 N 0.64068 0.54857 0.63940 0.00000
N1064 N 0.73529 0.64705 0.69898 0.00000
O1065 O 0.65387 0.61367 0.59356 0.00000
O1066 O 0.66795 0.59677 0.70411 0.00000
O1067 O 0.71431 0.61088 0.61817 0.00000
O1068 O 0.35234 0.64004 0.74319 0.00000
Eu1069 Eu 0.37369 0.68157 0.73729 0.00000
O1070 O 0.32388 0.68799 0.73663 0.00000
O1071 O 0.40337 0.64829 0.71448 0.00000
O1072 O 0.37281 0.71731 0.78310 0.00000
O1073 O 0.41897 0.70427 0.74484 0.00000
H1074 H 0.31292 0.72068 0.68707 0.00000
H1075 H 0.45035 0.68646 0.79416 0.00000
H1076 H 0.47788 0.71722 0.84010 0.00000
H1077 H 0.38647 0.68545 0.84471 0.00000
H1078 H 0.39121 0.62072 0.60041 0.00000
H1079 H 0.38340 0.65926 0.63514 0.00000
H1080 H 0.28783 0.71641 0.62960 0.00000
H1081 H 0.38645 0.71832 0.65468 0.00000
H1082 H 0.33065 0.61832 0.67703 0.00000
H1083 H 0.36188 0.71389 0.59769 0.00000
H1084 H 0.33925 0.57836 0.64481 0.00000
H1085 H 0.41278 0.71656 0.89023 0.00000
H1086 H 0.34981 0.62970 0.80196 0.00000
H1087 H 0.26834 0.62407 0.75413 0.00000
H1088 H 0.43310 0.72160 0.69467 0.00000
H1089 H 0.36284 0.59067 0.82446 0.00000
H1090 H 0.43128 0.62894 0.76358 0.00000
H1091 H 0.43904 0.66701 0.68524 0.00000
H1092 H 0.26293 0.63673 0.65642 0.00000
H1093 H 0.48908 0.66970 0.70265 0.00000
H1094 H 0.48120 0.63049 0.78168 0.00000
H1095 H 0.30335 0.65884 0.77269 0.00000
H1096 H 0.29818 0.67136 0.67530 0.00000
H1097 H 0.38014 0.60361 0.71803 0.00000
H1098 H 0.39404 0.56485 0.73968 0.00000
H1099 H 0.35766 0.75748 0.75532 0.00000
H1100 H 0.30167 0.73794 0.83036 0.00000
H1101 H 0.42214 0.74564 0.79073 0.00000
H1102 H 0.43756 0.78908 0.78829 0.00000
H1103 H 0.33848 0.71186 0.82106 0.00000
H1104 H 0.32082 0.78465 0.76437 0.00000
H1105 H 0.44674 0.76541 0.69033 0.00000
C1106 C 0.32300 0.71909 0.66873 0.00000
C1107 C 0.44262 0.69303 0.81371 0.00000
C1108 C 0.44774 0.72083 0.86939 0.00000
C1109 C 0.45901 0.71137 0.84107 0.00000
C1110 C 0.40484 0.69245 0.84338 0.00000
C1111 C 0.37896 0.61975 0.61623 0.00000
C1112 C 0.36596 0.59486 0.61840 0.00000
C1113 C 0.37412 0.64260 0.63670 0.00000
C1114 C 0.30808 0.71607 0.63431 0.00000
C1115 C 0.36612 0.71764 0.64963 0.00000
C1116 C 0.34334 0.61847 0.66158 0.00000
C1117 C 0.32187 0.71266 0.60749 0.00000
C1118 C 0.35151 0.71463 0.61571 0.00000
C1119 C 0.34814 0.59489 0.64213 0.00000
C1120 C 0.42064 0.71081 0.87055 0.00000
C1121 C 0.35813 0.61597 0.78891 0.00000
C1122 C 0.27463 0.63333 0.73765 0.00000
C1123 C 0.43375 0.73561 0.71369 0.00000
C1124 C 0.36606 0.59278 0.80230 0.00000
C1125 C 0.44325 0.63744 0.75145 0.00000
C1126 C 0.44789 0.66001 0.70528 0.00000
C1127 C 0.27141 0.64072 0.68033 0.00000
C1128 C 0.47760 0.66145 0.71559 0.00000
C1129 C 0.47288 0.63837 0.76219 0.00000
C1130 C 0.29506 0.65412 0.74874 0.00000
C1131 C 0.29209 0.66157 0.69148 0.00000
C1132 C 0.26262 0.62535 0.70253 0.00000
C1133 C 0.49027 0.65096 0.74419 0.00000
C1134 C 0.37840 0.57270 0.78392 0.00000
C1135 C 0.37612 0.60051 0.73954 0.00000
C1136 C 0.38426 0.57761 0.75234 0.00000
C1137 C 0.34619 0.75379 0.77116 0.00000
C1138 C 0.31341 0.74273 0.81530 0.00000
C1139 C 0.42753 0.74974 0.77033 0.00000
C1140 C 0.43653 0.77547 0.76873 0.00000
C1141 C 0.33500 0.72705 0.80956 0.00000
C1142 C 0.32447 0.76999 0.77681 0.00000
C1143 C 0.44220 0.76165 0.71126 0.00000
C1144 C 0.30791 0.76547 0.79998 0.00000
C1145 C 0.44420 0.78245 0.73894 0.00000
N1146 N 0.41569 0.68465 0.81515 0.00000
N1147 N 0.35684 0.64227 0.65881 0.00000
N1148 N 0.35194 0.71968 0.67563 0.00000
N1149 N 0.42637 0.72976 0.74261 0.00000
N1150 N 0.36242 0.61891 0.75747 0.00000
N1151 N 0.30360 0.66803 0.72552 0.00000
N1152 N 0.43180 0.64849 0.72405 0.00000
N1153 N 0.35110 0.73267 0.78818 0.00000
O1154 O 0.35193 0.66492 0.67793 0.00000
O1155 O 0.40034 0.66791 0.78871 0.00000
O1156 O 0.36607 0.72073 0.70784 0.00000
O1157 O 0.33917 0.38885 0.68693 0.00000
Eu1158 Eu 0.36089 0.39140 0.74573 0.00000
O1159 O 0.31005 0.39241 0.74221 0.00000
O1160 O 0.39778 0.40989 0.72051 0.00000
O1161 O 0.34778 0.35460 0.77166 0.00000
O1162 O 0.40446 0.38395 0.78152 0.00000
H1163 H 0.30960 0.42952 0.79973 0.00000
H1164 H 0.42527 0.34611 0.74733 0.00000
H1165 H 0.44125 0.30898 0.77374 0.00000
H1166 H 0.34807 0.30812 0.71104 0.00000
H1167 H 0.41367 0.49926 0.72864 0.00000
H1168 H 0.39604 0.47100 0.76079 0.00000
H1169 H 0.29794 0.47445 0.81128 0.00000
H1170 H 0.39240 0.45348 0.82693 0.00000
H1171 H 0.33367 0.44114 0.68109 0.00000
H1172 H 0.38115 0.49804 0.83821 0.00000
H1173 H 0.35154 0.46750 0.64636 0.00000
H1174 H 0.36291 0.27131 0.73777 0.00000
H1175 H 0.32289 0.34394 0.65028 0.00000
H1176 H 0.25147 0.38235 0.64304 0.00000
H1177 H 0.43027 0.42176 0.82616 0.00000
H1178 H 0.33215 0.32796 0.59610 0.00000
H1179 H 0.41516 0.37235 0.68370 0.00000
H1180 H 0.44050 0.43116 0.76366 0.00000
H1181 H 0.26891 0.45735 0.69610 0.00000
H1182 H 0.48724 0.41684 0.77189 0.00000
H1183 H 0.46167 0.35753 0.69020 0.00000
H1184 H 0.28151 0.36608 0.68701 0.00000
H1185 H 0.29912 0.44083 0.73983 0.00000
H1186 H 0.37481 0.40932 0.65830 0.00000
H1187 H 0.38516 0.39396 0.60500 0.00000
H1188 H 0.33758 0.37466 0.82885 0.00000
H1189 H 0.26322 0.31838 0.76178 0.00000
H1190 H 0.39526 0.34680 0.81535 0.00000
H1191 H 0.41004 0.34669 0.87376 0.00000
H1192 H 0.30389 0.32605 0.74182 0.00000
H1193 H 0.29691 0.36714 0.85025 0.00000
H1194 H 0.44368 0.42313 0.88535 0.00000
C1195 C 0.32432 0.44359 0.80739 0.00000
C1196 C 0.41248 0.33088 0.74592 0.00000
C1197 C 0.40339 0.28669 0.75953 0.00000
C1198 C 0.42199 0.30876 0.76167 0.00000
C1199 C 0.36687 0.30858 0.72457 0.00000
C1200 C 0.39742 0.48727 0.71829 0.00000
C1201 C 0.38452 0.48681 0.68355 0.00000
C1202 C 0.38678 0.47062 0.73736 0.00000
C1203 C 0.31746 0.47051 0.81375 0.00000
C1204 C 0.37291 0.45772 0.82330 0.00000
C1205 C 0.35029 0.45287 0.69038 0.00000
C1206 C 0.33806 0.49114 0.82339 0.00000
C1207 C 0.36624 0.48425 0.82955 0.00000
C1208 C 0.36067 0.46876 0.67000 0.00000
C1209 C 0.37584 0.28662 0.74028 0.00000
C1210 C 0.33497 0.35444 0.64039 0.00000
C1211 C 0.26151 0.39460 0.66251 0.00000
C1212 C 0.42589 0.40650 0.83614 0.00000
C1213 C 0.34066 0.34492 0.60823 0.00000
C1214 C 0.42996 0.38118 0.70184 0.00000
C1215 C 0.44497 0.41583 0.74916 0.00000
C1216 C 0.27169 0.43860 0.69358 0.00000
C1217 C 0.47274 0.40736 0.75386 0.00000
C1218 C 0.45757 0.37239 0.70573 0.00000
C1219 C 0.27895 0.38488 0.68869 0.00000
C1220 C 0.28938 0.42883 0.71987 0.00000
C1221 C 0.25795 0.42222 0.66370 0.00000
C1222 C 0.47917 0.38551 0.73253 0.00000
C1223 C 0.35835 0.35974 0.59354 0.00000
C1224 C 0.36567 0.39290 0.64501 0.00000
C1225 C 0.37171 0.38383 0.61350 0.00000
C1226 C 0.32222 0.36275 0.81530 0.00000
C1227 C 0.27862 0.32963 0.77643 0.00000
C1228 C 0.40549 0.36230 0.82977 0.00000
C1229 C 0.41415 0.36235 0.86439 0.00000
C1230 C 0.30256 0.33437 0.76436 0.00000
C1231 C 0.29816 0.35807 0.82802 0.00000
C1232 C 0.43417 0.40719 0.87134 0.00000
C1233 C 0.27589 0.34063 0.80937 0.00000
C1234 C 0.42886 0.38495 0.88663 0.00000
N1235 N 0.38497 0.33052 0.72863 0.00000
N1236 N 0.36389 0.45383 0.72413 0.00000
N1237 N 0.35216 0.43779 0.81221 0.00000
N1238 N 0.41164 0.38453 0.81571 0.00000
N1239 N 0.34677 0.37853 0.65748 0.00000
N1240 N 0.29274 0.40211 0.71711 0.00000
N1241 N 0.42447 0.40206 0.72367 0.00000
N1242 N 0.32389 0.35039 0.78357 0.00000
O1243 O 0.35351 0.43823 0.74346 0.00000
O1244 O 0.37623 0.35184 0.71474 0.00000
O1245 O 0.35881 0.41267 0.80409 0.00000
O1246 O 0.60238 0.30976 0.59657 0.00000
Eu1247 Eu 0.61540 0.32901 0.65538 0.00000
O1248 O 0.60931 0.28080 0.65284 0.00000
O1249 O 0.59284 0.36473 0.62749 0.00000
O1250 O 0.65950 0.31576 0.68505 0.00000
O1251 O 0.63536 0.36950 0.69129 0.00000
H1252 H 0.58355 0.27917 0.70790 0.00000
H1253 H 0.66911 0.38991 0.65946 0.00000
H1254 H 0.71606 0.40430 0.68899 0.00000
H1255 H 0.69445 0.31727 0.62765 0.00000
H1256 H 0.50130 0.38003 0.62775 0.00000
H1257 H 0.53743 0.36239 0.66308 0.00000
H1258 H 0.53768 0.26801 0.71602 0.00000
H1259 H 0.57139 0.35727 0.73158 0.00000
H1260 H 0.54508 0.30491 0.58633 0.00000
H1261 H 0.52589 0.34652 0.73944 0.00000
H1262 H 0.51037 0.32284 0.54855 0.00000
H1263 H 0.74104 0.33057 0.65751 0.00000
H1264 H 0.63998 0.29497 0.56366 0.00000
H1265 H 0.59166 0.22748 0.55462 0.00000
H1266 H 0.60797 0.39312 0.73268 0.00000
H1267 H 0.64486 0.30499 0.50999 0.00000
H1268 H 0.62537 0.38195 0.59305 0.00000
H1269 H 0.58403 0.40437 0.66841 0.00000
H1270 H 0.52613 0.24311 0.60155 0.00000
H1271 H 0.60501 0.44852 0.67693 0.00000
H1272 H 0.64644 0.42590 0.59988 0.00000
H1273 H 0.62181 0.25489 0.59985 0.00000
H1274 H 0.55650 0.27069 0.64655 0.00000
H1275 H 0.57682 0.34439 0.56507 0.00000
H1276 H 0.58132 0.35543 0.51222 0.00000
H1277 H 0.65094 0.30480 0.74143 0.00000
H1278 H 0.68861 0.23552 0.67998 0.00000
H1279 H 0.68203 0.35978 0.72889 0.00000
H1280 H 0.69721 0.37243 0.78768 0.00000
H1281 H 0.67910 0.27466 0.65823 0.00000
H1282 H 0.66064 0.26562 0.76462 0.00000
H1283 H 0.62165 0.40446 0.79217 0.00000
C1284 C 0.57166 0.29303 0.71414 0.00000
C1285 C 0.68387 0.37773 0.65961 0.00000
C1286 C 0.73322 0.36857 0.67734 0.00000
C1287 C 0.71185 0.38629 0.67722 0.00000
C1288 C 0.69872 0.33482 0.64089 0.00000
C1289 C 0.51022 0.36479 0.61865 0.00000
C1290 C 0.50142 0.35337 0.58382 0.00000
C1291 C 0.53152 0.35416 0.63960 0.00000
C1292 C 0.54405 0.28649 0.71843 0.00000
C1293 C 0.56443 0.33887 0.72797 0.00000
C1294 C 0.53622 0.32054 0.59437 0.00000
C1295 C 0.52615 0.30591 0.72597 0.00000
C1296 C 0.53723 0.33250 0.73218 0.00000
C1297 C 0.51538 0.33095 0.57216 0.00000
C1298 C 0.72647 0.34286 0.65847 0.00000
C1299 C 0.62750 0.30673 0.55250 0.00000
C1300 C 0.58411 0.23660 0.57306 0.00000
C1301 C 0.62616 0.38866 0.74417 0.00000
C1302 C 0.63044 0.31286 0.52064 0.00000
C1303 C 0.62152 0.39562 0.61033 0.00000
C1304 C 0.59721 0.40890 0.65494 0.00000
C1305 C 0.54565 0.24573 0.60053 0.00000
C1306 C 0.60959 0.43513 0.65981 0.00000
C1307 C 0.63402 0.42171 0.61441 0.00000
C1308 C 0.60206 0.25250 0.60000 0.00000
C1309 C 0.56369 0.26186 0.62759 0.00000
C1310 C 0.55480 0.23332 0.57199 0.00000
C1311 C 0.62824 0.44164 0.63994 0.00000
C1312 C 0.61270 0.33008 0.50412 0.00000
C1313 C 0.59032 0.33596 0.55322 0.00000
C1314 C 0.59298 0.34241 0.52198 0.00000
C1315 C 0.65909 0.29048 0.72907 0.00000
C1316 C 0.68142 0.24985 0.69351 0.00000
C1317 C 0.66985 0.36923 0.74194 0.00000
C1318 C 0.67871 0.37662 0.77678 0.00000
C1319 C 0.67551 0.27289 0.68037 0.00000
C1320 C 0.66510 0.26730 0.74287 0.00000
C1321 C 0.63445 0.39569 0.77956 0.00000
C1322 C 0.67735 0.24651 0.72597 0.00000
C1323 C 0.66123 0.39017 0.79704 0.00000
N1324 N 0.67789 0.35201 0.64274 0.00000
N1325 N 0.54431 0.33265 0.62814 0.00000
N1326 N 0.58124 0.31933 0.71890 0.00000
N1327 N 0.64345 0.37551 0.72568 0.00000
N1328 N 0.60697 0.31764 0.56748 0.00000
N1329 N 0.59165 0.26500 0.62700 0.00000
N1330 N 0.60409 0.38997 0.63077 0.00000
N1331 N 0.66482 0.29277 0.69798 0.00000
O1332 O 0.56458 0.32226 0.64926 0.00000
O1333 O 0.65127 0.34414 0.62706 0.00000
O1334 O 0.60651 0.32573 0.71268 0.00000
O1335 O 0.61734 0.32396 0.31187 0.00000
Eu1336 Eu 0.59762 0.32182 0.25256 0.00000
O1337 O 0.64846 0.31835 0.25840 0.00000
O1338 O 0.56429 0.34685 0.28114 0.00000
O1339 O 0.60328 0.28063 0.21762 0.00000
O1340 O 0.55340 0.31441 0.21293 0.00000
H1341 H 0.65836 0.34892 0.21009 0.00000
H1342 H 0.52359 0.28238 0.23679 0.00000
H1343 H 0.50017 0.24359 0.20012 0.00000
H1344 H 0.59142 0.24100 0.26665 0.00000
H1345 H 0.56815 0.43714 0.29517 0.00000
H1346 H 0.58032 0.40337 0.25635 0.00000
H1347 H 0.68007 0.39155 0.21043 0.00000
H1348 H 0.58168 0.37780 0.18555 0.00000
H1349 H 0.63411 0.37660 0.33132 0.00000
H1350 H 0.60288 0.42014 0.18606 0.00000
H1351 H 0.62122 0.40879 0.37223 0.00000
H1352 H 0.56921 0.20239 0.22979 0.00000
H1353 H 0.62291 0.28155 0.33788 0.00000
H1354 H 0.70233 0.31407 0.35783 0.00000
H1355 H 0.53697 0.34969 0.17670 0.00000
H1356 H 0.60891 0.27265 0.38787 0.00000
H1357 H 0.53790 0.31509 0.30784 0.00000
H1358 H 0.52736 0.36732 0.24150 0.00000
H1359 H 0.70257 0.38490 0.32298 0.00000
H1360 H 0.47782 0.35650 0.22769 0.00000
H1361 H 0.48845 0.30394 0.29566 0.00000
H1362 H 0.66987 0.29554 0.30828 0.00000
H1363 H 0.66987 0.36618 0.27360 0.00000
H1364 H 0.58561 0.35125 0.34444 0.00000
H1365 H 0.57068 0.34299 0.39366 0.00000
H1366 H 0.61916 0.29317 0.16568 0.00000
H1367 H 0.67944 0.23727 0.22169 0.00000
H1368 H 0.55526 0.27232 0.16981 0.00000
H1369 H 0.54187 0.26689 0.11050 0.00000
H1370 H 0.64010 0.25119 0.24208 0.00000
H1371 H 0.65858 0.27924 0.14389 0.00000
H1372 H 0.52529 0.34552 0.11703 0.00000
C1373 C 0.64693 0.36357 0.20539 0.00000
C1374 C 0.53299 0.26602 0.23483 0.00000
C1375 C 0.53272 0.21922 0.21022 0.00000
C1376 C 0.51904 0.24291 0.21296 0.00000
C1377 C 0.57308 0.24171 0.25242 0.00000
C1378 C 0.58149 0.42474 0.30316 0.00000
C1379 C 0.59343 0.42705 0.33847 0.00000
C1380 C 0.58891 0.40481 0.28017 0.00000
C1381 C 0.65980 0.38920 0.20616 0.00000
C1382 C 0.60195 0.38060 0.19106 0.00000
C1383 C 0.62031 0.38890 0.32431 0.00000
C1384 C 0.64399 0.41077 0.20092 0.00000
C1385 C 0.61454 0.40586 0.19183 0.00000
C1386 C 0.61296 0.40821 0.34844 0.00000
C1387 C 0.55972 0.21871 0.23066 0.00000
C1388 C 0.61293 0.29440 0.35001 0.00000
C1389 C 0.69546 0.32508 0.34100 0.00000
C1390 C 0.53824 0.33280 0.16295 0.00000
C1391 C 0.60442 0.28910 0.37967 0.00000
C1392 C 0.52550 0.32328 0.29128 0.00000
C1393 C 0.51921 0.35405 0.25198 0.00000
C1394 C 0.69564 0.36664 0.32061 0.00000
C1395 C 0.48979 0.34768 0.24397 0.00000
C1396 C 0.49614 0.31667 0.28402 0.00000
C1397 C 0.67656 0.31398 0.31150 0.00000
C1398 C 0.67649 0.35550 0.29098 0.00000
C1399 C 0.70506 0.35233 0.34701 0.00000
C1400 C 0.47811 0.32882 0.25957 0.00000
C1401 C 0.58967 0.30738 0.39751 0.00000
C1402 C 0.59082 0.33543 0.35397 0.00000
C1403 C 0.58207 0.33054 0.38307 0.00000
C1404 C 0.63156 0.28131 0.17687 0.00000
C1405 C 0.66689 0.24836 0.20923 0.00000
C1406 C 0.54879 0.28720 0.15887 0.00000
C1407 C 0.54098 0.28409 0.12375 0.00000
C1408 C 0.64377 0.25681 0.22160 0.00000
C1409 C 0.65483 0.27282 0.16386 0.00000
C1410 C 0.53096 0.33023 0.12741 0.00000
C1411 C 0.67279 0.25532 0.17904 0.00000
C1412 C 0.53177 0.30562 0.10658 0.00000
N1413 N 0.55993 0.26501 0.25322 0.00000
N1414 N 0.60776 0.38727 0.29010 0.00000
N1415 N 0.61803 0.35987 0.19796 0.00000
N1416 N 0.54717 0.31173 0.17843 0.00000
N1417 N 0.60682 0.31774 0.33852 0.00000
N1418 N 0.66724 0.32932 0.28679 0.00000
N1419 N 0.53604 0.34119 0.27489 0.00000
N1420 N 0.62645 0.27273 0.20553 0.00000
O1421 O 0.61516 0.36839 0.26710 0.00000
O1422 O 0.57297 0.28717 0.27298 0.00000
O1423 O 0.60572 0.33623 0.19942 0.00000
F1424 F 0.70502 0.21275 0.76153 0.00000
C1425 C 0.70032 0.23689 0.75142 0.00000
C1426 C 0.72538 0.24409 0.73479 0.00000
F1427 F 0.72155 0.22780 0.70434 0.00000
F1428 F 0.70125 0.25504 0.78046 0.00000
F1429 F 0.72327 0.26955 0.72813 0.00000
F1430 F 0.72478 0.24958 0.16862 0.00000
C1431 C 0.69804 0.24085 0.16935 0.00000
C1432 C 0.70063 0.22312 0.19800 0.00000
F1433 F 0.70790 0.23991 0.22808 0.00000
F1434 F 0.68731 0.22516 0.13840 0.00000
F1435 F 0.67464 0.21136 0.19672 0.00000
F1436 F 0.71274 0.75947 0.25156 0.00000
C1437 C 0.72593 0.75082 0.22561 0.00000
C1438 C 0.70368 0.73269 0.19752 0.00000
F1439 F 0.68530 0.74913 0.18283 0.00000
F1440 F 0.74707 0.73551 0.23847 0.00000
F1441 F 0.71698 0.72103 0.17300 0.00000
F1442 F 0.20757 0.79830 0.29333 0.00000
C1443 C 0.20987 0.77154 0.29204 0.00000
C1444 C 0.23562 0.76785 0.32062 0.00000
F1445 F 0.22744 0.77442 0.35070 0.00000
F1446 F 0.21582 0.76200 0.26082 0.00000
F1447 F 0.24073 0.74147 0.31742 0.00000
F1448 F 0.28206 0.23070 0.22664 0.00000
C1449 C 0.26745 0.25184 0.23657 0.00000
C1450 C 0.24666 0.24159 0.25740 0.00000
F1451 F 0.26259 0.23786 0.28767 0.00000
F1452 F 0.25205 0.25909 0.20732 0.00000
F1453 F 0.22926 0.26128 0.26420 0.00000
F1454 F 0.76748 0.73090 0.74615 0.00000
C1455 C 0.78953 0.73396 0.73049 0.00000
C1456 C 0.78337 0.71348 0.69671 0.00000
F1457 F 0.76218 0.72280 0.67524 0.00000
F1458 F 0.81319 0.72721 0.75166 0.00000
F1459 F 0.80655 0.71366 0.68240 0.00000
F1460 F 0.32288 0.80675 0.82275 0.00000
C1461 C 0.29734 0.80093 0.80094 0.00000
C1462 C 0.29449 0.82173 0.77595 0.00000
F1463 F 0.31239 0.81515 0.75476 0.00000
F1464 F 0.27710 0.80469 0.82028 0.00000
F1465 F 0.26781 0.81862 0.75643 0.00000
F1466 F 0.26286 0.28439 0.80976 0.00000
C1467 C 0.23884 0.29595 0.79726 0.00000
C1468 C 0.24771 0.32542 0.79553 0.00000
F1469 F 0.26136 0.32458 0.76934 0.00000
F1470 F 0.22188 0.29584 0.82068 0.00000
F1471 F 0.22387 0.33855 0.78712 0.00000
F1472 F 0.90980 0.01629 0.75094 0.00000
C1473 C 0.88161 0.01338 0.75015 0.00000
C1474 C 0.87645 0.98695 0.76391 0.00000
F1475 F 0.88718 0.99183 0.79796 0.00000
F1476 F 0.86804 0.01054 0.71645 0.00000
F1477 F 0.84807 0.98166 0.75959 0.00000
F1478 F 0.99073 0.12657 0.17358 0.00000
C1479 C 0.00010 0.12235 0.20618 0.00000
C1480 C 0.97570 0.10905 0.21802 0.00000
F1481 F 0.97151 0.08377 0.20091 0.00000
F1482 F 0.00816 0.14697 0.22587 0.00000
F1483 F 0.98389 0.10750 0.25190 0.00000
F1484 F 0.83416 0.95904 0.24914 0.00000
C1485 C 0.80731 0.95940 0.23095 0.00000
C1486 C 0.80893 0.97646 0.20231 0.00000
F1487 F 0.82109 0.96156 0.17925 0.00000
F1488 F 0.79199 0.97221 0.25287 0.00000
F1489 F 0.78211 0.98001 0.18618 0.00000
F1490 F 0.98036 0.84174 0.23838 0.00000
C1491 C 0.98875 0.83287 0.20873 0.00000
C1492 C 0.00931 0.81057 0.21630 0.00000
F1493 F 0.99323 0.78917 0.21955 0.00000
F1494 F 0.00348 0.85392 0.20102 0.00000
F1495 F 0.02086 0.80346 0.18845 0.00000
F1496 F 0.16533 0.99458 0.17205 0.00000
C1497 C 0.14260 0.00010 0.18608 0.00000
C1498 C 0.14482 0.98606 0.21761 0.00000
F1499 F 0.16623 0.99990 0.24195 0.00000
F1500 F 0.11896 0.99043 0.16213 0.00000
F1501 F 0.12068 0.98909 0.22983 0.00000
F1502 F 0.03514 0.86088 0.76882 0.00000
C1503 C 0.02428 0.86742 0.79730 0.00000
C1504 C 0.04866 0.88256 0.82561 0.00000
F1505 F 0.05290 0.90684 0.81686 0.00000
F1506 F 0.01676 0.84390 0.80709 0.00000
F1507 F 0.03961 0.88655 0.85566 0.00000
F1508 F 0.19497 0.85870 0.01662 0.00000
C1509 C 0.16892 0.86802 0.00780 0.00000
C1510 C 0.16030 0.88005 0.04173 0.00000
F1511 F 0.17649 0.90304 0.05375 0.00000
F1512 F 0.15072 0.84635 0.99233 0.00000
F1513 F 0.13296 0.88662 0.03424 0.00000
F1514 F 0.76455 0.18747 0.98537 0.00000
C1515 C 0.78279 0.16768 0.98704 0.00000
C1516 C 0.80723 0.17577 0.96993 0.00000
F1517 F 0.82280 0.19612 0.99188 0.00000
F1518 F 0.76836 0.14495 0.96778 0.00000
F1519 F 0.82409 0.15496 0.96733 0.00000
F1520 F 0.83706 0.78978 0.94593 0.00000
C1521 C 0.86124 0.80577 0.95786 0.00000
C1522 C 0.87730 0.79543 0.99033 0.00000
F1523 F 0.88761 0.77209 0.97920 0.00000
F1524 F 0.85333 0.83101 0.96736 0.00000
F1525 F 0.89987 0.81288 0.00541 0.00000
F1526 F 0.22554 0.12218 0.00640 0.00000
C1527 C 0.20663 0.14082 0.99990 0.00000
C1528 C 0.19988 0.15368 0.03393 0.00000
F1529 F 0.22310 0.16924 0.05098 0.00000
F1530 F 0.18253 0.12742 0.97913 0.00000
F1531 F 0.17846 0.17010 0.02739 0.00000
F1532 F 0.66015 0.59867 0.46871 0.00000
C1533 C 0.68861 0.60288 0.48015 0.00000
C1534 C 0.70147 0.60596 0.44845 0.00000
F1535 F 0.69452 0.63000 0.43993 0.00000
F1536 F 0.69797 0.58029 0.49245 0.00000
F1537 F 0.73015 0.60693 0.45810 0.00000
F1538 F 0.29504 0.72214 0.53206 0.00000
C1539 C 0.32372 0.72594 0.54003 0.00000
C1540 C 0.33432 0.70933 0.56898 0.00000
F1541 F 0.33075 0.68341 0.55418 0.00000
F1542 F 0.33009 0.75253 0.55279 0.00000
F1543 F 0.36260 0.71519 0.58057 0.00000
F1544 F 0.34091 0.41151 0.55867 0.00000
C1545 C 0.35095 0.39322 0.53661 0.00000
C1546 C 0.34629 0.36550 0.54751 0.00000
F1547 F 0.31820 0.35891 0.53844 0.00000
F1548 F 0.37945 0.39935 0.54138 0.00000
F1549 F 0.35918 0.34715 0.52871 0.00000
F1550 F 0.51352 0.62412 0.69329 0.00000
C1551 C 0.53636 0.63216 0.71903 0.00000
C1552 C 0.52525 0.63678 0.75289 0.00000
F1553 F 0.51830 0.61233 0.75943 0.00000
F1554 F 0.54698 0.65615 0.71343 0.00000
F1555 F 0.54692 0.64797 0.77871 0.00000
F1556 F 0.35743 0.56026 0.83121 0.00000
C1557 C 0.36859 0.54373 0.80832 0.00000
C1558 C 0.35159 0.51620 0.80215 0.00000
F1559 F 0.32584 0.51935 0.78332 0.00000
F1560 F 0.39603 0.54081 0.82372 0.00000
F1561 F 0.36433 0.49822 0.78266 0.00000
F1562 F 0.52336 0.36386 0.71130 0.00000
C1563 C 0.49890 0.35481 0.71881 0.00000
C1564 C 0.50592 0.33021 0.73711 0.00000
F1565 F 0.52128 0.33987 0.76866 0.00000
F1566 F 0.48040 0.34644 0.68823 0.00000
F1567 F 0.48131 0.31861 0.74128 0.00000
F1568 F 0.61975 0.46927 0.68179 0.00000
C1569 C 0.64480 0.47718 0.67473 0.00000
C1570 C 0.64523 0.46301 0.63792 0.00000
F1571 F 0.62672 0.47511 0.61629 0.00000
F1572 F 0.66576 0.46790 0.69746 0.00000
F1573 F 0.67136 0.46783 0.63151 0.00000
F1574 F 0.48296 0.34320 0.28514 0.00000
C1575 C 0.46797 0.31981 0.27021 0.00000
C1576 C 0.43623 0.32600 0.26284 0.00000
F1577 F 0.43257 0.34001 0.23651 0.00000
F1578 F 0.47209 0.30281 0.29391 0.00000
F1579 F 0.42030 0.30252 0.25177 0.00000
F1580 F 0.60475 0.44656 0.19256 0.00000
C1581 C 0.63280 0.44686 0.20655 0.00000
C1582 C 0.63813 0.46637 0.24113 0.00000
F1583 F 0.62661 0.45386 0.26291 0.00000
F1584 F 0.64710 0.45720 0.18479 0.00000
F1585 F 0.66650 0.46974 0.25389 0.00000
F1586 F 0.46566 0.64167 0.24573 0.00000
C1587 C 0.48329 0.65673 0.27296 0.00000
C1588 C 0.50232 0.67536 0.25821 0.00000
F1589 F 0.48562 0.69392 0.24572 0.00000
F1590 F 0.49999 0.63951 0.28975 0.00000
F1591 F 0.52255 0.68841 0.28450 0.00000
F1592 F 0.36966 0.51353 0.36698 0.00000
C1593 C 0.34141 0.51632 0.36347 0.00000
C1594 C 0.33270 0.53296 0.33407 0.00000
F1595 F 0.33359 0.51669 0.30466 0.00000
F1596 F 0.33750 0.53081 0.39347 0.00000
F1597 F 0.30532 0.53897 0.33259 0.00000
F1598 F 0.61586 0.29142 0.47044 0.00000
C1599 C 0.61239 0.31759 0.46796 0.00000
C1600 C 0.59114 0.31826 0.43366 0.00000
F1601 F 0.56549 0.31017 0.43834 0.00000
F1602 F 0.63814 0.32876 0.46603 0.00000
F1603 F 0.58978 0.34407 0.42823 0.00000
F1604 F 0.22907 0.04697 0.84221 0.00000
C1605 C 0.20867 0.03815 0.81385 0.00000
C1606 C 0.21128 0.00756 0.80462 0.00000
F1607 F 0.20160 0.99606 0.82857 0.00000
F1608 F 0.21494 0.05047 0.78800 0.00000
F1609 F 0.19354 0.99859 0.77401 0.00000
F1610 F 0.99245 0.17563 0.72595 0.00000
C1611 C 0.00550 0.17165 0.75774 0.00000
C1612 C 0.03252 0.19106 0.76863 0.00000
F1613 F 0.02358 0.21584 0.77536 0.00000
F1614 F 0.01352 0.14588 0.75468 0.00000
F1615 F 0.04797 0.18539 0.79848 0.00000
loop_
_geom_bond_atom_site_label_1
_geom_bond_atom_site_label_2
_geom_bond_distance
_geom_bond_site_symmetry_2
_ccdc_geom_bond_type
O0 N82 1.338 . S
O0 Eu1 2.354 . S
Eu1 O2 2.412 . S
Eu1 O3 2.424 . S
Eu1 O4 2.373 . S
Eu1 O5 2.356 . S
Eu1 O86 2.403 . S
Eu1 O87 2.398 . S
Eu1 O88 2.440 . S
O2 N83 1.331 . S
O3 N84 1.337 . S
O4 N85 1.345 . S
O5 N81 1.336 . S
H6 C38 0.950 . S
H7 C39 0.951 . S
H8 C41 0.950 . S
H9 C42 0.950 . S
H10 C43 0.950 . S
H11 C45 0.949 . S
H12 C46 0.951 . S
H13 C47 0.951 . S
H14 C48 0.950 . S
H15 C50 0.951 . S
H16 C51 0.950 . S
H17 C52 0.950 . S
H18 C53 0.949 . S
H19 C54 0.949 . S
H20 C55 0.951 . S
H21 C56 0.949 . S
H22 C57 0.949 . S
H23 C58 0.950 . S
H24 C59 0.949 . S
H25 C60 0.950 . S
H26 C61 0.949 . S
H27 C62 0.950 . S
H28 C63 0.951 . S
H29 C67 0.951 . S
H30 C68 0.951 . S
H31 C69 0.951 . S
H32 C70 0.951 . S
H33 C71 0.951 . S
H34 C72 0.951 . S
H35 C73 0.950 . S
H36 C74 0.950 . S
H37 C75 0.949 . S
C38 C46 1.401 . A
C38 N80 1.356 . A
C39 C41 1.402 . A
C39 N78 1.357 . A
C40 C41 1.379 . A
C40 C52 1.387 . A
C42 C52 1.388 . A
C42 N78 1.347 . A
C43 C44 1.398 . A
C43 C45 1.362 . A
C44 C51 1.397 . A
C45 N79 1.327 . A
C46 C49 1.360 . A
C47 C50 1.379 . A
C47 N80 1.344 . A
C48 C51 1.369 . A
C48 N79 1.368 . A
C49 C50 1.387 . A
C53 C56 1.386 . A
C53 N82 1.342 . A
C54 C62 1.364 . A
C54 C64 1.398 . A
C55 C75 1.378 . A
C55 N81 1.343 . A
C56 C66 1.379 . A
C57 C61 1.394 . A
C57 N84 1.330 . A
C58 C60 1.395 . A
C58 N84 1.349 . A
C59 C63 1.374 . A
C59 C64 1.375 . A
C60 C65 1.370 . A
C61 C65 1.396 . A
C62 N83 1.357 . A
C63 N83 1.347 . A
C66 C68 1.401 . A
C67 C68 1.365 . A
C67 N82 1.353 . A
C69 C74 1.376 . A
C69 N85 1.345 . A
C70 C73 1.356 . A
C70 C76 1.383 . A
C71 C72 1.362 . A
C71 N81 1.370 . A
C72 C77 1.402 . A
C73 N85 1.313 . A
C74 C76 1.371 . A
C75 C77 1.390 . A
N78 O87 1.321 . S
N79 O86 1.328 . S
N80 O88 1.321 . S
O89 N171 1.338 . S
O89 Eu90 2.354 . S
Eu90 O91 2.412 . S
Eu90 O92 2.424 . S
Eu90 O93 2.373 . S
Eu90 O94 2.356 . S
Eu90 O175 2.403 . S
Eu90 O176 2.398 . S
Eu90 O177 2.440 . S
O91 N172 1.331 . S
O92 N173 1.337 . S
O93 N174 1.345 . S
O94 N170 1.336 . S
H95 C127 0.950 . S
H96 C128 0.951 . S
H97 C130 0.950 . S
H98 C131 0.950 . S
H99 C132 0.950 . S
H100 C134 0.949 . S
H101 C135 0.951 . S
H102 C136 0.951 . S
H103 C137 0.950 . S
H104 C139 0.951 . S
H105 C140 0.950 . S
H106 C141 0.950 . S
H107 C142 0.949 . S
H108 C143 0.949 . S
H109 C144 0.951 . S
H110 C145 0.949 . S
H111 C146 0.949 . S
H112 C147 0.950 . S
H113 C148 0.949 . S
H114 C149 0.950 . S
H115 C150 0.949 . S
H116 C151 0.950 . S
H117 C152 0.951 . S
H118 C156 0.951 . S
H119 C157 0.951 . S
H120 C158 0.951 . S
H121 C159 0.951 . S
H122 C160 0.951 . S
H123 C161 0.951 . S
H124 C162 0.950 . S
H125 C163 0.950 . S
H126 C164 0.949 . S
C127 C135 1.401 . A
C127 N169 1.356 . A
C128 C130 1.402 . A
C128 N167 1.357 . A
C129 C130 1.379 . A
C129 C141 1.387 . A
C131 C141 1.388 . A
C131 N167 1.347 . A
C132 C133 1.398 . A
C132 C134 1.362 . A
C133 C140 1.397 . A
C134 N168 1.327 . A
C135 C138 1.360 . A
C136 C139 1.379 . A
C136 N169 1.344 . A
C137 C140 1.369 . A
C137 N168 1.368 . A
C138 C139 1.387 . A
C142 C145 1.386 . A
C142 N171 1.342 . A
C143 C151 1.364 . A
C143 C153 1.398 . A
C144 C164 1.378 . A
C144 N170 1.343 . A
C145 C155 1.379 . A
C146 C150 1.394 . A
C146 N173 1.330 . A
C147 C149 1.395 . A
C147 N173 1.349 . A
C148 C152 1.374 . A
C148 C153 1.375 . A
C149 C154 1.370 . A
C150 C154 1.396 . A
C151 N172 1.357 . A
C152 N172 1.347 . A
C155 C157 1.401 . A
C156 C157 1.365 . A
C156 N171 1.353 . A
C158 C163 1.376 . A
C158 N174 1.345 . A
C159 C162 1.356 . A
C159 C165 1.383 . A
C160 C161 1.362 . A
C160 N170 1.370 . A
C161 C166 1.402 . A
C162 N174 1.313 . A
C163 C165 1.371 . A
C164 C166 1.390 . A
N167 O176 1.321 . S
N168 O175 1.328 . S
N169 O177 1.321 . S
O178 N260 1.338 . S
O178 Eu179 2.354 . S
Eu179 O180 2.412 . S
Eu179 O181 2.424 . S
Eu179 O182 2.373 . S
Eu179 O183 2.356 . S
Eu179 O264 2.403 . S
Eu179 O265 2.398 . S
Eu179 O266 2.440 . S
O180 N261 1.331 . S
O181 N262 1.337 . S
O182 N263 1.345 . S
O183 N259 1.336 . S
H184 C216 0.950 . S
H185 C217 0.951 . S
H186 C219 0.950 . S
H187 C220 0.950 . S
H188 C221 0.950 . S
H189 C223 0.949 . S
H190 C224 0.951 . S
H191 C225 0.951 . S
H192 C226 0.950 . S
H193 C228 0.951 . S
H194 C229 0.950 . S
H195 C230 0.950 . S
H196 C231 0.949 . S
H197 C232 0.949 . S
H198 C233 0.951 . S
H199 C234 0.949 . S
H200 C235 0.949 . S
H201 C236 0.950 . S
H202 C237 0.949 . S
H203 C238 0.950 . S
H204 C239 0.949 . S
H205 C240 0.950 . S
H206 C241 0.951 . S
H207 C245 0.951 . S
H208 C246 0.951 . S
H209 C247 0.951 . S
H210 C248 0.951 . S
H211 C249 0.951 . S
H212 C250 0.951 . S
H213 C251 0.950 . S
H214 C252 0.950 . S
H215 C253 0.949 . S
C216 C224 1.401 . A
C216 N258 1.356 . A
C217 C219 1.402 . A
C217 N256 1.357 . A
C218 C219 1.379 . A
C218 C230 1.387 . A
C220 C230 1.388 . A
C220 N256 1.347 . A
C221 C222 1.398 . A
C221 C223 1.362 . A
C222 C229 1.397 . A
C223 N257 1.327 . A
C224 C227 1.360 . A
C225 C228 1.379 . A
C225 N258 1.344 . A
C226 C229 1.369 . A
C226 N257 1.368 . A
C227 C228 1.387 . A
C231 C234 1.386 . A
C231 N260 1.342 . A
C232 C240 1.364 . A
C232 C242 1.398 . A
C233 C253 1.378 . A
C233 N259 1.343 . A
C234 C244 1.379 . A
C235 C239 1.394 . A
C235 N262 1.330 . A
C236 C238 1.395 . A
C236 N262 1.349 . A
C237 C241 1.374 . A
C237 C242 1.375 . A
C238 C243 1.370 . A
C239 C243 1.396 . A
C240 N261 1.357 . A
C241 N261 1.347 . A
C244 C246 1.401 . A
C245 C246 1.365 . A
C245 N260 1.353 . A
C247 C252 1.376 . A
C247 N263 1.345 . A
C248 C251 1.356 . A
C248 C254 1.383 . A
C249 C250 1.362 . A
C249 N259 1.370 . A
C250 C255 1.402 . A
C251 N263 1.313 . A
C252 C254 1.371 . A
C253 C255 1.390 . A
N256 O265 1.321 . S
N257 O264 1.328 . S
N258 O266 1.321 . S
O267 N349 1.338 . S
O267 Eu268 2.354 . S
Eu268 O269 2.412 . S
Eu268 O270 2.424 . S
Eu268 O271 2.373 . S
Eu268 O272 2.356 . S
Eu268 O353 2.403 . S
Eu268 O354 2.398 . S
Eu268 O355 2.440 . S
O269 N350 1.331 . S
O270 N351 1.337 . S
O271 N352 1.345 . S
O272 N348 1.336 . S
H273 C305 0.950 . S
H274 C306 0.951 . S
H275 C308 0.950 . S
H276 C309 0.950 . S
H277 C310 0.950 . S
H278 C312 0.949 . S
H279 C313 0.951 . S
H280 C314 0.951 . S
H281 C315 0.950 . S
H282 C317 0.951 . S
H283 C318 0.950 . S
H284 C319 0.950 . S
H285 C320 0.949 . S
H286 C321 0.949 . S
H287 C322 0.951 . S
H288 C323 0.949 . S
H289 C324 0.949 . S
H290 C325 0.950 . S
H291 C326 0.949 . S
H292 C327 0.950 . S
H293 C328 0.949 . S
H294 C329 0.950 . S
H295 C330 0.951 . S
H296 C334 0.951 . S
H297 C335 0.951 . S
H298 C336 0.951 . S
H299 C337 0.951 . S
H300 C338 0.951 . S
H301 C339 0.951 . S
H302 C340 0.950 . S
H303 C341 0.950 . S
H304 C342 0.949 . S
C305 C313 1.401 . A
C305 N347 1.356 . A
C306 C308 1.402 . A
C306 N345 1.357 . A
C307 C308 1.379 . A
C307 C319 1.387 . A
C309 C319 1.388 . A
C309 N345 1.347 . A
C310 C311 1.398 . A
C310 C312 1.362 . A
C311 C318 1.397 . A
C312 N346 1.327 . A
C313 C316 1.360 . A
C314 C317 1.379 . A
C314 N347 1.344 . A
C315 C318 1.369 . A
C315 N346 1.368 . A
C316 C317 1.387 . A
C320 C323 1.386 . A
C320 N349 1.342 . A
C321 C329 1.364 . A
C321 C331 1.398 . A
C322 C342 1.378 . A
C322 N348 1.343 . A
C323 C333 1.379 . A
C324 C328 1.394 . A
C324 N351 1.330 . A
C325 C327 1.395 . A
C325 N351 1.349 . A
C326 C330 1.374 . A
C326 C331 1.375 . A
C327 C332 1.370 . A
C328 C332 1.396 . A
C329 N350 1.357 . A
C330 N350 1.347 . A
C333 C335 1.401 . A
C334 C335 1.365 . A
C334 N349 1.353 . A
C336 C341 1.376 . A
C336 N352 1.345 . A
C337 C340 1.356 . A
C337 C343 1.383 . A
C338 C339 1.362 . A
C338 N348 1.370 . A
C339 C344 1.402 . A
C340 N352 1.313 . A
C341 C343 1.371 . A
C342 C344 1.390 . A
N345 O354 1.321 . S
N346 O353 1.328 . S
N347 O355 1.321 . S
O356 N438 1.338 . S
O356 Eu357 2.354 . S
Eu357 O358 2.412 . S
Eu357 O359 2.424 . S
Eu357 O360 2.373 . S
Eu357 O361 2.356 . S
Eu357 O442 2.403 . S
Eu357 O443 2.398 . S
Eu357 O444 2.440 . S
O358 N439 1.331 . S
O359 N440 1.337 . S
O360 N441 1.345 . S
O361 N437 1.336 . S
H362 C394 0.950 . S
H363 C395 0.951 . S
H364 C397 0.950 . S
H365 C398 0.950 . S
H366 C399 0.950 . S
H367 C401 0.949 . S
H368 C402 0.951 . S
H369 C403 0.951 . S
H370 C404 0.950 . S
H371 C406 0.951 . S
H372 C407 0.950 . S
H373 C408 0.950 . S
H374 C409 0.949 . S
H375 C410 0.949 . S
H376 C411 0.951 . S
H377 C412 0.949 . S
H378 C413 0.949 . S
H379 C414 0.950 . S
H380 C415 0.949 . S
H381 C416 0.950 . S
H382 C417 0.949 . S
H383 C418 0.950 . S
H384 C419 0.951 . S
H385 C423 0.951 . S
H386 C424 0.951 . S
H387 C425 0.951 . S
H388 C426 0.951 . S
H389 C427 0.951 . S
H390 C428 0.951 . S
H391 C429 0.950 . S
H392 C430 0.950 . S
H393 C431 0.949 . S
C394 C402 1.401 . A
C394 N436 1.356 . A
C395 C397 1.402 . A
C395 N434 1.357 . A
C396 C397 1.379 . A
C396 C408 1.387 . A
C398 C408 1.388 . A
C398 N434 1.347 . A
C399 C400 1.398 . A
C399 C401 1.362 . A
C400 C407 1.397 . A
C401 N435 1.327 . A
C402 C405 1.360 . A
C403 C406 1.379 . A
C403 N436 1.344 . A
C404 C407 1.369 . A
C404 N435 1.368 . A
C405 C406 1.387 . A
C409 C412 1.386 . A
C409 N438 1.342 . A
C410 C418 1.364 . A
C410 C420 1.398 . A
C411 C431 1.378 . A
C411 N437 1.343 . A
C412 C422 1.379 . A
C413 C417 1.394 . A
C413 N440 1.330 . A
C414 C416 1.395 . A
C414 N440 1.349 . A
C415 C419 1.374 . A
C415 C420 1.375 . A
C416 C421 1.370 . A
C417 C421 1.396 . A
C418 N439 1.357 . A
C419 N439 1.347 . A
C422 C424 1.401 . A
C423 C424 1.365 . A
C423 N438 1.353 . A
C425 C430 1.376 . A
C425 N441 1.345 . A
C426 C429 1.356 . A
C426 C432 1.383 . A
C427 C428 1.362 . A
C427 N437 1.370 . A
C428 C433 1.402 . A
C429 N441 1.313 . A
C430 C432 1.371 . A
C431 C433 1.390 . A
N434 O443 1.321 . S
N435 O442 1.328 . S
N436 O444 1.321 . S
O445 N527 1.338 . S
O445 Eu446 2.354 . S
Eu446 O447 2.412 . S
Eu446 O448 2.424 . S
Eu446 O449 2.373 . S
Eu446 O450 2.356 . S
Eu446 O531 2.403 . S
Eu446 O532 2.398 . S
Eu446 O533 2.440 . S
O447 N528 1.331 . S
O448 N529 1.337 . S
O449 N530 1.345 . S
O450 N526 1.336 . S
H451 C483 0.950 . S
H452 C484 0.951 . S
H453 C486 0.950 . S
H454 C487 0.950 . S
H455 C488 0.950 . S
H456 C490 0.949 . S
H457 C491 0.951 . S
H458 C492 0.951 . S
H459 C493 0.950 . S
H460 C495 0.951 . S
H461 C496 0.950 . S
H462 C497 0.950 . S
H463 C498 0.949 . S
H464 C499 0.949 . S
H465 C500 0.951 . S
H466 C501 0.949 . S
H467 C502 0.949 . S
H468 C503 0.950 . S
H469 C504 0.949 . S
H470 C505 0.967 . S
H471 C506 0.949 . S
H472 C507 0.950 . S
H473 C508 0.951 . S
H474 C512 0.951 . S
H475 C513 0.951 . S
H476 C514 0.951 . S
H477 C515 0.951 . S
H478 C516 0.951 . S
H479 C517 0.951 . S
H480 C518 0.950 . S
H481 C519 0.950 . S
H482 C520 0.949 . S
C483 C491 1.401 . A
C483 N525 1.356 . A
C484 C486 1.402 . A
C484 N523 1.357 . A
C485 C486 1.379 . A
C485 C497 1.387 . A
C487 C497 1.388 . A
C487 N523 1.347 . A
C488 C489 1.398 . A
C488 C490 1.362 . A
C489 C496 1.397 . A
C490 N524 1.327 . A
C491 C494 1.360 . A
C492 C495 1.379 . A
C492 N525 1.344 . A
C493 C496 1.369 . A
C493 N524 1.368 . A
C494 C495 1.387 . A
C498 C501 1.386 . A
C498 N527 1.342 . A
C499 C507 1.364 . A
C499 C509 1.398 . A
C500 C520 1.378 . A
C500 N526 1.343 . A
C501 C511 1.379 . A
C502 C506 1.394 . A
C502 N529 1.330 . A
C503 C505 1.367 1_655 A
C503 N529 1.349 . A
C504 C508 1.374 . A
C504 C509 1.375 . A
C505 C510 1.381 . A
C506 C510 1.396 1_655 A
C507 N528 1.357 . A
C508 N528 1.347 . A
C511 C513 1.401 . A
C512 C513 1.365 . A
C512 N527 1.353 . A
C514 C519 1.376 . A
C514 N530 1.345 . A
C515 C518 1.356 . A
C515 C521 1.383 . A
C516 C517 1.362 . A
C516 N526 1.370 . A
C517 C522 1.402 . A
C518 N530 1.313 . A
C519 C521 1.371 . A
C520 C522 1.390 . A
N523 O532 1.321 . S
N524 O531 1.328 . S
N525 O533 1.321 . S
O534 N616 1.338 . S
O534 Eu535 2.354 . S
Eu535 O536 2.412 . S
Eu535 O537 2.424 . S
Eu535 O538 2.373 . S
Eu535 O539 2.356 . S
Eu535 O620 2.403 . S
Eu535 O621 2.398 . S
Eu535 O622 2.440 . S
O536 N617 1.331 . S
O537 N618 1.337 . S
O538 N619 1.345 . S
O539 N615 1.336 . S
H540 C572 0.950 . S
H541 C573 0.951 . S
H542 C575 0.950 . S
H543 C576 0.950 . S
H544 C577 0.950 1_545 S
H545 C579 0.949 . S
H546 C580 0.951 . S
H547 C581 0.951 . S
H548 C582 0.950 . S
H549 C584 0.951 . S
H550 C585 0.950 . S
H551 C586 0.950 . S
H552 C587 0.949 . S
H553 C588 0.949 . S
H554 C589 0.951 . S
H555 C590 0.949 . S
H556 C591 0.949 . S
H557 C592 0.950 . S
H558 C593 0.949 . S
H559 C594 0.950 . S
H560 C595 0.949 . S
H561 C596 0.950 . S
H562 C597 0.951 . S
H563 C601 0.951 . S
H564 C602 0.951 . S
H565 C603 0.951 . S
H566 C604 0.951 . S
H567 C605 0.951 . S
H568 C606 0.951 . S
H569 C607 0.950 . S
H570 C608 0.950 . S
H571 C609 0.949 . S
C572 C580 1.401 . A
C572 N614 1.356 . A
C573 C575 1.402 . A
C573 N612 1.357 . A
C574 C575 1.379 . A
C574 C586 1.387 . A
C576 C586 1.388 . A
C576 N612 1.347 . A
C577 C578 1.398 . A
C577 C579 1.362 . A
C578 C585 1.397 . A
C579 N613 1.327 . A
C580 C583 1.360 . A
C581 C584 1.379 . A
C581 N614 1.344 . A
C582 C585 1.369 . A
C582 N613 1.368 . A
C583 C584 1.387 . A
C587 C590 1.386 . A
C587 N616 1.342 . A
C588 C596 1.364 . A
C588 C598 1.398 . A
C589 C609 1.378 . A
C589 N615 1.343 . A
C590 C600 1.379 . A
C591 C595 1.394 . A
C591 N618 1.330 . A
C592 C594 1.395 . A
C592 N618 1.349 . A
C593 C597 1.374 . A
C593 C598 1.375 . A
C594 C599 1.370 . A
C595 C599 1.396 . A
C596 N617 1.357 . A
C597 N617 1.347 . A
C600 C602 1.401 . A
C601 C602 1.365 . A
C601 N616 1.353 . A
C603 C608 1.376 . A
C603 N619 1.345 . A
C604 C607 1.356 . A
C604 C610 1.383 . A
C605 C606 1.362 . A
C605 N615 1.370 . A
C606 C611 1.402 . A
C607 N619 1.313 . A
C608 C610 1.371 . A
C609 C611 1.390 . A
N612 O621 1.321 . S
N613 O620 1.328 . S
N614 O622 1.321 . S
O623 N705 1.338 . S
O623 Eu624 2.354 . S
Eu624 O625 2.412 . S
Eu624 O626 2.424 . S
Eu624 O627 2.373 . S
Eu624 O628 2.356 . S
Eu624 O709 2.403 . S
Eu624 O710 2.398 . S
Eu624 O711 2.440 . S
O625 N706 1.331 . S
O626 N707 1.337 . S
O627 N708 1.345 . S
O628 N704 1.336 . S
H629 C661 0.950 . S
H630 C662 0.951 . S
H631 C664 0.950 . S
H632 C665 0.950 . S
H633 C666 0.950 . S
H634 C668 0.949 . S
H635 C669 0.951 . S
H636 C670 0.951 . S
H637 C671 0.950 . S
H638 C673 0.951 . S
H639 C674 0.950 . S
H640 C675 0.950 . S
H641 C676 0.949 . S
H642 C677 0.949 . S
H643 C678 0.951 . S
H644 C679 0.949 . S
H645 C680 0.949 . S
H646 C681 0.950 . S
H647 C682 0.949 . S
H648 C683 0.950 . S
H649 C684 0.949 . S
H650 C685 0.950 . S
H651 C686 0.951 . S
H652 C690 0.951 . S
H653 C691 0.951 . S
H654 C692 0.951 . S
H655 C693 0.951 . S
H656 C694 0.951 . S
H657 C695 0.951 . S
H658 C696 0.950 . S
H659 C697 0.950 . S
H660 C698 0.949 . S
C661 C669 1.401 . A
C661 N703 1.356 . A
C662 C664 1.402 . A
C662 N701 1.357 . A
C663 C664 1.379 . A
C663 C675 1.387 . A
C665 C675 1.388 . A
C665 N701 1.347 . A
C666 C667 1.398 . A
C666 C668 1.362 . A
C667 C674 1.397 . A
C668 N702 1.327 . A
C669 C672 1.360 . A
C670 C673 1.379 . A
C670 N703 1.344 . A
C671 C674 1.369 . A
C671 N702 1.368 . A
C672 C673 1.387 . A
C676 C679 1.386 . A
C676 N705 1.342 . A
C677 C685 1.364 . A
C677 C687 1.398 . A
C678 C698 1.378 . A
C678 N704 1.343 . A
C679 C689 1.379 . A
C680 C684 1.394 . A
C680 N707 1.330 . A
C681 C683 1.395 . A
C681 N707 1.349 . A
C682 C686 1.374 . A
C682 C687 1.375 . A
C683 C688 1.370 . A
C684 C688 1.396 . A
C685 N706 1.357 . A
C686 N706 1.347 . A
C689 C691 1.401 . A
C690 C691 1.365 . A
C690 N705 1.353 . A
C692 C697 1.376 . A
C692 N708 1.345 . A
C693 C696 1.356 . A
C693 C699 1.383 . A
C694 C695 1.362 . A
C694 N704 1.370 . A
C695 C700 1.402 . A
C696 N708 1.313 . A
C697 C699 1.371 . A
C698 C700 1.390 . A
N701 O710 1.321 . S
N702 O709 1.328 . S
N703 O711 1.321 . S
O712 N794 1.338 . S
O712 Eu713 2.354 . S
Eu713 O714 2.412 . S
Eu713 O715 2.424 . S
Eu713 O716 2.373 . S
Eu713 O717 2.356 . S
Eu713 O798 2.403 . S
Eu713 O799 2.398 . S
Eu713 O800 2.440 . S
O714 N795 1.331 . S
O715 N796 1.337 . S
O716 N797 1.345 . S
O717 N793 1.336 . S
H718 C750 0.950 . S
H719 C751 0.951 . S
H720 C753 0.950 . S
H721 C754 0.950 . S
H722 C755 0.950 . S
H723 C757 0.949 . S
H724 C758 0.951 . S
H725 C759 0.951 . S
H726 C760 0.950 . S
H727 C762 0.951 . S
H728 C763 0.950 . S
H729 C764 0.950 . S
H730 C765 0.949 . S
H731 C766 0.949 . S
H732 C767 0.951 . S
H733 C768 0.949 . S
H734 C769 0.949 . S
H735 C770 0.950 . S
H736 C771 0.949 . S
H737 C772 0.950 . S
H738 C773 0.949 . S
H739 C774 0.950 . S
H740 C775 0.951 . S
H741 C779 0.951 . S
H742 C780 0.951 . S
H743 C781 0.951 . S
H744 C782 0.951 . S
H745 C783 0.951 . S
H746 C784 0.951 . S
H747 C785 0.950 . S
H748 C786 0.950 . S
H749 C787 0.949 . S
C750 C758 1.401 . A
C750 N792 1.356 . A
C751 C753 1.402 . A
C751 N790 1.357 . A
C752 C753 1.379 . A
C752 C764 1.387 . A
C754 C764 1.388 . A
C754 N790 1.347 . A
C755 C756 1.398 . A
C755 C757 1.362 . A
C756 C763 1.397 . A
C757 N791 1.327 . A
C758 C761 1.360 . A
C759 C762 1.379 . A
C759 N792 1.344 . A
C760 C763 1.369 . A
C760 N791 1.368 . A
C761 C762 1.387 . A
C765 C768 1.386 . A
C765 N794 1.342 . A
C766 C774 1.364 . A
C766 C776 1.398 . A
C767 C787 1.378 . A
C767 N793 1.343 . A
C768 C778 1.379 . A
C769 C773 1.394 . A
C769 N796 1.330 . A
C770 C772 1.395 . A
C770 N796 1.349 . A
C771 C775 1.374 . A
C771 C776 1.375 . A
C772 C777 1.370 . A
C773 C777 1.396 . A
C774 N795 1.357 . A
C775 N795 1.347 . A
C778 C780 1.401 . A
C779 C780 1.365 . A
C779 N794 1.353 . A
C781 C786 1.376 . A
C781 N797 1.345 . A
C782 C785 1.356 . A
C782 C788 1.383 . A
C783 C784 1.362 . A
C783 N793 1.370 . A
C784 C789 1.402 . A
C785 N797 1.313 . A
C786 C788 1.371 . A
C787 C789 1.390 . A
N790 O799 1.321 . S
N791 O798 1.328 . S
N792 O800 1.321 . S
O801 N883 1.338 . S
O801 Eu802 2.354 . S
Eu802 O803 2.412 . S
Eu802 O804 2.424 . S
Eu802 O805 2.373 . S
Eu802 O806 2.356 . S
Eu802 O887 2.403 . S
Eu802 O888 2.398 . S
Eu802 O889 2.440 . S
O803 N884 1.331 . S
O804 N885 1.337 . S
O805 N886 1.345 . S
O806 N882 1.336 . S
H807 C839 0.950 . S
H808 C840 0.951 . S
H809 C842 0.950 . S
H810 C843 0.950 . S
H811 C844 0.950 . S
H812 C846 0.949 . S
H813 C847 0.951 . S
H814 C848 0.951 . S
H815 C849 0.950 . S
H816 C851 0.951 . S
H817 C852 0.950 . S
H818 C853 0.950 . S
H819 C854 0.949 . S
H820 C855 0.949 . S
H821 C856 0.951 . S
H822 C857 0.949 . S
H823 C858 0.949 . S
H824 C859 0.950 . S
H825 C860 0.949 . S
H826 C861 0.950 . S
H827 C862 0.949 . S
H828 C863 0.950 . S
H829 C864 0.951 . S
H830 C868 0.951 . S
H831 C869 0.951 . S
H832 C870 0.951 . S
H833 C871 0.951 . S
H834 C872 0.951 . S
H835 C873 0.951 . S
H836 C874 0.950 . S
H837 C875 0.950 . S
H838 C876 0.949 . S
C839 C847 1.401 . A
C839 N881 1.356 . A
C840 C842 1.402 . A
C840 N879 1.357 . A
C841 C842 1.379 . A
C841 C853 1.387 . A
C843 C853 1.388 . A
C843 N879 1.347 . A
C844 C845 1.398 . A
C844 C846 1.362 . A
C845 C852 1.397 . A
C846 N880 1.327 . A
C847 C850 1.360 . A
C848 C851 1.379 . A
C848 N881 1.344 . A
C849 C852 1.369 . A
C849 N880 1.368 . A
C850 C851 1.387 . A
C854 C857 1.386 . A
C854 N883 1.342 . A
C855 C863 1.364 . A
C855 C865 1.398 . A
C856 C876 1.378 . A
C856 N882 1.343 . A
C857 C867 1.379 . A
C858 C862 1.394 . A
C858 N885 1.330 . A
C859 C861 1.395 . A
C859 N885 1.349 . A
C860 C864 1.374 . A
C860 C865 1.375 . A
C861 C866 1.370 . A
C862 C866 1.396 . A
C863 N884 1.357 . A
C864 N884 1.347 . A
C867 C869 1.401 . A
C868 C869 1.365 . A
C868 N883 1.353 . A
C870 C875 1.376 . A
C870 N886 1.345 . A
C871 C874 1.356 . A
C871 C877 1.383 . A
C872 C873 1.362 . A
C872 N882 1.370 . A
C873 C878 1.402 . A
C874 N886 1.313 . A
C875 C877 1.371 . A
C876 C878 1.390 . A
N879 O888 1.321 . S
N880 O887 1.328 . S
N881 O889 1.321 . S
O890 N972 1.338 . S
O890 Eu891 2.354 . S
Eu891 O892 2.412 . S
Eu891 O893 2.424 . S
Eu891 O894 2.373 . S
Eu891 O895 2.356 . S
Eu891 O976 2.403 . S
Eu891 O977 2.398 . S
Eu891 O978 2.440 . S
O892 N973 1.331 . S
O893 N974 1.337 . S
O894 N975 1.345 . S
O895 N971 1.336 . S
H896 C928 0.950 . S
H897 C929 0.951 . S
H898 C931 0.950 . S
H899 C932 0.950 . S
H900 C933 0.950 . S
H901 C935 0.949 . S
H902 C936 0.951 . S
H903 C937 0.951 . S
H904 C938 0.950 . S
H905 C940 0.951 . S
H906 C941 0.950 . S
H907 C942 0.950 . S
H908 C943 0.949 . S
H909 C944 0.949 . S
H910 C945 0.951 . S
H911 C946 0.949 . S
H912 C947 0.949 . S
H913 C948 0.950 . S
H914 C949 0.949 . S
H915 C950 0.950 . S
H916 C951 0.949 . S
H917 C952 0.950 . S
H918 C953 0.951 . S
H919 C957 0.951 . S
H920 C958 0.951 . S
H921 C959 0.951 . S
H922 C960 0.951 . S
H923 C961 0.951 . S
H924 C962 0.951 . S
H925 C963 0.950 . S
H926 C964 0.950 . S
H927 C965 0.949 . S
C928 C936 1.401 . A
C928 N970 1.356 . A
C929 C931 1.402 . A
C929 N968 1.357 . A
C930 C931 1.379 . A
C930 C942 1.387 . A
C932 C942 1.388 . A
C932 N968 1.347 . A
C933 C934 1.398 . A
C933 C935 1.362 . A
C934 C941 1.397 . A
C935 N969 1.327 . A
C936 C939 1.360 . A
C937 C940 1.379 . A
C937 N970 1.344 . A
C938 C941 1.369 . A
C938 N969 1.368 . A
C939 C940 1.387 . A
C943 C946 1.386 . A
C943 N972 1.342 . A
C944 C952 1.364 . A
C944 C954 1.398 . A
C945 C965 1.378 . A
C945 N971 1.343 . A
C946 C956 1.379 . A
C947 C951 1.394 . A
C947 N974 1.330 . A
C948 C950 1.395 . A
C948 N974 1.349 . A
C949 C953 1.374 . A
C949 C954 1.375 . A
C950 C955 1.370 . A
C951 C955 1.396 . A
C952 N973 1.357 . A
C953 N973 1.347 . A
C956 C958 1.401 . A
C957 C958 1.365 . A
C957 N972 1.353 . A
C959 C964 1.376 . A
C959 N975 1.345 . A
C960 C963 1.356 . A
C960 C966 1.383 . A
C961 C962 1.362 . A
C961 N971 1.370 . A
C962 C967 1.402 . A
C963 N975 1.313 . A
C964 C966 1.371 . A
C965 C967 1.390 . A
N968 O977 1.321 . S
N969 O976 1.328 . S
N970 O978 1.321 . S
O979 N1061 1.338 . S
O979 Eu980 2.354 . S
Eu980 O981 2.412 . S
Eu980 O982 2.424 . S
Eu980 O983 2.373 . S
Eu980 O984 2.356 . S
Eu980 O1065 2.403 . S
Eu980 O1066 2.398 . S
Eu980 O1067 2.440 . S
O981 N1062 1.331 . S
O982 N1063 1.337 . S
O983 N1064 1.345 . S
O984 N1060 1.336 . S
H985 C1017 0.950 . S
H986 C1018 0.951 . S
H987 C1020 0.950 . S
H988 C1021 0.950 . S
H989 C1022 0.950 . S
H990 C1024 0.949 . S
H991 C1025 0.951 . S
H992 C1026 0.951 . S
H993 C1027 0.950 . S
H994 C1029 0.951 . S
H995 C1030 0.950 . S
H996 C1031 0.950 . S
H997 C1032 0.949 . S
H998 C1033 0.949 . S
H999 C1034 0.951 . S
H1000 C1035 0.949 . S
H1001 C1036 0.949 . S
H1002 C1037 0.950 . S
H1003 C1038 0.949 . S
H1004 C1039 0.950 . S
H1005 C1040 0.949 . S
H1006 C1041 0.950 . S
H1007 C1042 0.951 . S
H1008 C1046 0.951 . S
H1009 C1047 0.951 . S
H1010 C1048 0.951 . S
H1011 C1049 0.951 . S
H1012 C1050 0.951 . S
H1013 C1051 0.951 . S
H1014 C1052 0.950 . S
H1015 C1053 0.950 . S
H1016 C1054 0.949 . S
C1017 C1025 1.401 . A
C1017 N1059 1.356 . A
C1018 C1020 1.402 . A
C1018 N1057 1.357 . A
C1019 C1020 1.379 . A
C1019 C1031 1.387 . A
C1021 C1031 1.388 . A
C1021 N1057 1.347 . A
C1022 C1023 1.398 . A
C1022 C1024 1.362 . A
C1023 C1030 1.397 . A
C1024 N1058 1.327 . A
C1025 C1028 1.360 . A
C1026 C1029 1.379 . A
C1026 N1059 1.344 . A
C1027 C1030 1.369 . A
C1027 N1058 1.368 . A
C1028 C1029 1.387 . A
C1032 C1035 1.386 . A
C1032 N1061 1.342 . A
C1033 C1041 1.364 . A
C1033 C1043 1.398 . A
C1034 C1054 1.378 . A
C1034 N1060 1.343 . A
C1035 C1045 1.379 . A
C1036 C1040 1.394 . A
C1036 N1063 1.330 . A
C1037 C1039 1.395 . A
C1037 N1063 1.349 . A
C1038 C1042 1.374 . A
C1038 C1043 1.375 . A
C1039 C1044 1.370 . A
C1040 C1044 1.396 . A
C1041 N1062 1.357 . A
C1042 N1062 1.347 . A
C1045 C1047 1.401 . A
C1046 C1047 1.365 . A
C1046 N1061 1.353 . A
C1048 C1053 1.376 . A
C1048 N1064 1.345 . A
C1049 C1052 1.356 . A
C1049 C1055 1.383 . A
C1050 C1051 1.362 . A
C1050 N1060 1.370 . A
C1051 C1056 1.402 . A
C1052 N1064 1.313 . A
C1053 C1055 1.371 . A
C1054 C1056 1.390 . A
N1057 O1066 1.321 . S
N1058 O1065 1.328 . S
N1059 O1067 1.321 . S
O1068 N1150 1.338 . S
O1068 Eu1069 2.354 . S
Eu1069 O1070 2.412 . S
Eu1069 O1071 2.424 . S
Eu1069 O1072 2.373 . S
Eu1069 O1073 2.356 . S
Eu1069 O1154 2.403 . S
Eu1069 O1155 2.398 . S
Eu1069 O1156 2.440 . S
O1070 N1151 1.331 . S
O1071 N1152 1.337 . S
O1072 N1153 1.345 . S
O1073 N1149 1.336 . S
H1074 C1106 0.950 . S
H1075 C1107 0.951 . S
H1076 C1109 0.950 . S
H1077 C1110 0.950 . S
H1078 C1111 0.950 . S
H1079 C1113 0.949 . S
H1080 C1114 0.951 . S
H1081 C1115 0.951 . S
H1082 C1116 0.950 . S
H1083 C1118 0.951 . S
H1084 C1119 0.950 . S
H1085 C1120 0.950 . S
H1086 C1121 0.949 . S
H1087 C1122 0.949 . S
H1088 C1123 0.951 . S
H1089 C1124 0.949 . S
H1090 C1125 0.949 . S
H1091 C1126 0.950 . S
H1092 C1127 0.949 . S
H1093 C1128 0.950 . S
H1094 C1129 0.949 . S
H1095 C1130 0.950 . S
H1096 C1131 0.951 . S
H1097 C1135 0.951 . S
H1098 C1136 0.951 . S
H1099 C1137 0.951 . S
H1100 C1138 0.951 . S
H1101 C1139 0.951 . S
H1102 C1140 0.951 . S
H1103 C1141 0.950 . S
H1104 C1142 0.950 . S
H1105 C1143 0.949 . S
C1106 C1114 1.401 . A
C1106 N1148 1.356 . A
C1107 C1109 1.402 . A
C1107 N1146 1.357 . A
C1108 C1109 1.379 . A
C1108 C1120 1.387 . A
C1110 C1120 1.388 . A
C1110 N1146 1.347 . A
C1111 C1112 1.398 . A
C1111 C1113 1.362 . A
C1112 C1119 1.397 . A
C1113 N1147 1.327 . A
C1114 C1117 1.360 . A
C1115 C1118 1.379 . A
C1115 N1148 1.344 . A
C1116 C1119 1.369 . A
C1116 N1147 1.368 . A
C1117 C1118 1.387 . A
C1121 C1124 1.386 . A
C1121 N1150 1.342 . A
C1122 C1130 1.364 . A
C1122 C1132 1.398 . A
C1123 C1143 1.378 . A
C1123 N1149 1.343 . A
C1124 C1134 1.379 . A
C1125 C1129 1.394 . A
C1125 N1152 1.330 . A
C1126 C1128 1.395 . A
C1126 N1152 1.349 . A
C1127 C1131 1.374 . A
C1127 C1132 1.375 . A
C1128 C1133 1.370 . A
C1129 C1133 1.396 . A
C1130 N1151 1.357 . A
C1131 N1151 1.347 . A
C1134 C1136 1.401 . A
C1135 C1136 1.365 . A
C1135 N1150 1.353 . A
C1137 C1142 1.376 . A
C1137 N1153 1.345 . A
C1138 C1141 1.356 . A
C1138 C1144 1.383 . A
C1139 C1140 1.362 . A
C1139 N1149 1.370 . A
C1140 C1145 1.402 . A
C1141 N1153 1.313 . A
C1142 C1144 1.371 . A
C1143 C1145 1.390 . A
N1146 O1155 1.321 . S
N1147 O1154 1.328 . S
N1148 O1156 1.321 . S
O1157 N1239 1.338 . S
O1157 Eu1158 2.354 . S
Eu1158 O1159 2.412 . S
Eu1158 O1160 2.424 . S
Eu1158 O1161 2.373 . S
Eu1158 O1162 2.356 . S
Eu1158 O1243 2.403 . S
Eu1158 O1244 2.398 . S
Eu1158 O1245 2.440 . S
O1159 N1240 1.331 . S
O1160 N1241 1.337 . S
O1161 N1242 1.345 . S
O1162 N1238 1.336 . S
H1163 C1195 0.950 . S
H1164 C1196 0.951 . S
H1165 C1198 0.950 . S
H1166 C1199 0.950 . S
H1167 C1200 0.950 . S
H1168 C1202 0.949 . S
H1169 C1203 0.951 . S
H1170 C1204 0.951 . S
H1171 C1205 0.950 . S
H1172 C1207 0.951 . S
H1173 C1208 0.950 . S
H1174 C1209 0.950 . S
H1175 C1210 0.949 . S
H1176 C1211 0.949 . S
H1177 C1212 0.951 . S
H1178 C1213 0.949 . S
H1179 C1214 0.949 . S
H1180 C1215 0.950 . S
H1181 C1216 0.949 . S
H1182 C1217 0.950 . S
H1183 C1218 0.949 . S
H1184 C1219 0.950 . S
H1185 C1220 0.951 . S
H1186 C1224 0.951 . S
H1187 C1225 0.951 . S
H1188 C1226 0.951 . S
H1189 C1227 0.951 . S
H1190 C1228 0.951 . S
H1191 C1229 0.951 . S
H1192 C1230 0.950 . S
H1193 C1231 0.950 . S
H1194 C1232 0.949 . S
C1195 C1203 1.401 . A
C1195 N1237 1.356 . A
C1196 C1198 1.402 . A
C1196 N1235 1.357 . A
C1197 C1198 1.379 . A
C1197 C1209 1.387 . A
C1199 C1209 1.388 . A
C1199 N1235 1.347 . A
C1200 C1201 1.398 . A
C1200 C1202 1.362 . A
C1201 C1208 1.397 . A
C1202 N1236 1.327 . A
C1203 C1206 1.360 . A
C1204 C1207 1.379 . A
C1204 N1237 1.344 . A
C1205 C1208 1.369 . A
C1205 N1236 1.368 . A
C1206 C1207 1.387 . A
C1210 C1213 1.386 . A
C1210 N1239 1.342 . A
C1211 C1219 1.364 . A
C1211 C1221 1.398 . A
C1212 C1232 1.378 . A
C1212 N1238 1.343 . A
C1213 C1223 1.379 . A
C1214 C1218 1.394 . A
C1214 N1241 1.330 . A
C1215 C1217 1.395 . A
C1215 N1241 1.349 . A
C1216 C1220 1.374 . A
C1216 C1221 1.375 . A
C1217 C1222 1.370 . A
C1218 C1222 1.396 . A
C1219 N1240 1.357 . A
C1220 N1240 1.347 . A
C1223 C1225 1.401 . A
C1224 C1225 1.365 . A
C1224 N1239 1.353 . A
C1226 C1231 1.376 . A
C1226 N1242 1.345 . A
C1227 C1230 1.356 . A
C1227 C1233 1.383 . A
C1228 C1229 1.362 . A
C1228 N1238 1.370 . A
C1229 C1234 1.402 . A
C1230 N1242 1.313 . A
C1231 C1233 1.371 . A
C1232 C1234 1.390 . A
N1235 O1244 1.321 . S
N1236 O1243 1.328 . S
N1237 O1245 1.321 . S
O1246 N1328 1.338 . S
O1246 Eu1247 2.354 . S
Eu1247 O1248 2.412 . S
Eu1247 O1249 2.424 . S
Eu1247 O1250 2.373 . S
Eu1247 O1251 2.356 . S
Eu1247 O1332 2.403 . S
Eu1247 O1333 2.398 . S
Eu1247 O1334 2.440 . S
O1248 N1329 1.331 . S
O1249 N1330 1.337 . S
O1250 N1331 1.345 . S
O1251 N1327 1.336 . S
H1252 C1284 0.950 . S
H1253 C1285 0.951 . S
H1254 C1287 0.950 . S
H1255 C1288 0.950 . S
H1256 C1289 0.950 . S
H1257 C1291 0.949 . S
H1258 C1292 0.951 . S
H1259 C1293 0.951 . S
H1260 C1294 0.950 . S
H1261 C1296 0.951 . S
H1262 C1297 0.950 . S
H1263 C1298 0.950 . S
H1264 C1299 0.949 . S
H1265 C1300 0.949 . S
H1266 C1301 0.951 . S
H1267 C1302 0.949 . S
H1268 C1303 0.949 . S
H1269 C1304 0.950 . S
H1270 C1305 0.949 . S
H1271 C1306 0.950 . S
H1272 C1307 0.949 . S
H1273 C1308 0.950 . S
H1274 C1309 0.951 . S
H1275 C1313 0.951 . S
H1276 C1314 0.951 . S
H1277 C1315 0.951 . S
H1278 C1316 0.951 . S
H1279 C1317 0.951 . S
H1280 C1318 0.951 . S
H1281 C1319 0.950 . S
H1282 C1320 0.950 . S
H1283 C1321 0.949 . S
C1284 C1292 1.401 . A
C1284 N1326 1.356 . A
C1285 C1287 1.402 . A
C1285 N1324 1.357 . A
C1286 C1287 1.379 . A
C1286 C1298 1.387 . A
C1288 C1298 1.388 . A
C1288 N1324 1.347 . A
C1289 C1290 1.398 . A
C1289 C1291 1.362 . A
C1290 C1297 1.397 . A
C1291 N1325 1.327 . A
C1292 C1295 1.360 . A
C1293 C1296 1.379 . A
C1293 N1326 1.344 . A
C1294 C1297 1.369 . A
C1294 N1325 1.368 . A
C1295 C1296 1.387 . A
C1299 C1302 1.386 . A
C1299 N1328 1.342 . A
C1300 C1308 1.364 . A
C1300 C1310 1.398 . A
C1301 C1321 1.378 . A
C1301 N1327 1.343 . A
C1302 C1312 1.379 . A
C1303 C1307 1.394 . A
C1303 N1330 1.330 . A
C1304 C1306 1.395 . A
C1304 N1330 1.349 . A
C1305 C1309 1.374 . A
C1305 C1310 1.375 . A
C1306 C1311 1.370 . A
C1307 C1311 1.396 . A
C1308 N1329 1.357 . A
C1309 N1329 1.347 . A
C1312 C1314 1.401 . A
C1313 C1314 1.365 . A
C1313 N1328 1.353 . A
C1315 C1320 1.376 . A
C1315 N1331 1.345 . A
C1316 C1319 1.356 . A
C1316 C1322 1.383 . A
C1317 C1318 1.362 . A
C1317 N1327 1.370 . A
C1318 C1323 1.402 . A
C1319 N1331 1.313 . A
C1320 C1322 1.371 . A
C1321 C1323 1.390 . A
N1324 O1333 1.321 . S
N1325 O1332 1.328 . S
N1326 O1334 1.321 . S
O1335 N1417 1.338 . S
O1335 Eu1336 2.354 . S
Eu1336 O1337 2.412 . S
Eu1336 O1338 2.424 . S
Eu1336 O1339 2.373 . S
Eu1336 O1340 2.356 . S
Eu1336 O1421 2.403 . S
Eu1336 O1422 2.398 . S
Eu1336 O1423 2.440 . S
O1337 N1418 1.331 . S
O1338 N1419 1.337 . S
O1339 N1420 1.345 . S
O1340 N1416 1.336 . S
H1341 C1373 0.950 . S
H1342 C1374 0.951 . S
H1343 C1376 0.950 . S
H1344 C1377 0.950 . S
H1345 C1378 0.950 . S
H1346 C1380 0.949 . S
H1347 C1381 0.951 . S
H1348 C1382 0.951 . S
H1349 C1383 0.950 . S
H1350 C1385 0.951 . S
H1351 C1386 0.950 . S
H1352 C1387 0.950 . S
H1353 C1388 0.949 . S
H1354 C1389 0.949 . S
H1355 C1390 0.951 . S
H1356 C1391 0.949 . S
H1357 C1392 0.949 . S
H1358 C1393 0.950 . S
H1359 C1394 0.949 . S
H1360 C1395 0.950 . S
H1361 C1396 0.949 . S
H1362 C1397 0.950 . S
H1363 C1398 0.951 . S
H1364 C1402 0.951 . S
H1365 C1403 0.951 . S
H1366 C1404 0.951 . S
H1367 C1405 0.951 . S
H1368 C1406 0.951 . S
H1369 C1407 0.951 . S
H1370 C1408 0.950 . S
H1371 C1409 0.950 . S
H1372 C1410 0.949 . S
C1373 C1381 1.401 . A
C1373 N1415 1.356 . A
C1374 C1376 1.402 . A
C1374 N1413 1.357 . A
C1375 C1376 1.379 . A
C1375 C1387 1.387 . A
C1377 C1387 1.388 . A
C1377 N1413 1.347 . A
C1378 C1379 1.398 . A
C1378 C1380 1.362 . A
C1379 C1386 1.397 . A
C1380 N1414 1.327 . A
C1381 C1384 1.360 . A
C1382 C1385 1.379 . A
C1382 N1415 1.344 . A
C1383 C1386 1.369 . A
C1383 N1414 1.368 . A
C1384 C1385 1.387 . A
C1388 C1391 1.386 . A
C1388 N1417 1.342 . A
C1389 C1397 1.364 . A
C1389 C1399 1.398 . A
C1390 C1410 1.378 . A
C1390 N1416 1.343 . A
C1391 C1401 1.379 . A
C1392 C1396 1.394 . A
C1392 N1419 1.330 . A
C1393 C1395 1.395 . A
C1393 N1419 1.349 . A
C1394 C1398 1.374 . A
C1394 C1399 1.375 . A
C1395 C1400 1.370 . A
C1396 C1400 1.396 . A
C1397 N1418 1.357 . A
C1398 N1418 1.347 . A
C1401 C1403 1.401 . A
C1402 C1403 1.365 . A
C1402 N1417 1.353 . A
C1404 C1409 1.376 . A
C1404 N1420 1.345 . A
C1405 C1408 1.356 . A
C1405 C1411 1.383 . A
C1406 C1407 1.362 . A
C1406 N1416 1.370 . A
C1407 C1412 1.402 . A
C1408 N1420 1.313 . A
C1409 C1411 1.371 . A
C1410 C1412 1.390 . A
N1413 O1422 1.321 . S
N1414 O1421 1.328 . S
N1415 O1423 1.321 . S
F1424 C1425 1.346 . S
C1425 C1426 1.540 . S
C1425 F1428 1.357 . S
C1426 F1427 1.337 . S
C1426 F1429 1.347 . S
F1430 C1431 1.346 . S
C1431 C1432 1.540 . S
C1431 F1434 1.357 . S
C1432 F1433 1.337 . S
C1432 F1435 1.347 . S
F1436 C1437 1.346 . S
C1437 C1438 1.540 . S
C1437 F1440 1.357 . S
C1438 F1439 1.337 . S
C1438 F1441 1.347 . S
F1442 C1443 1.346 . S
C1443 C1444 1.540 . S
C1443 F1446 1.357 . S
C1444 F1445 1.337 . S
C1444 F1447 1.347 . S
F1448 C1449 1.346 . S
C1449 C1450 1.540 . S
C1449 F1452 1.357 . S
C1450 F1451 1.337 . S
C1450 F1453 1.347 . S
F1454 C1455 1.346 . S
C1455 C1456 1.540 . S
C1455 F1458 1.357 . S
C1456 F1457 1.337 . S
C1456 F1459 1.347 . S
F1460 C1461 1.346 . S
C1461 C1462 1.540 . S
C1461 F1464 1.357 . S
C1462 F1463 1.337 . S
C1462 F1465 1.347 . S
F1466 C1467 1.346 . S
C1467 C1468 1.540 . S
C1467 F1470 1.357 . S
C1468 F1469 1.337 . S
C1468 F1471 1.347 . S
F1472 C1473 1.346 . S
C1473 C1474 1.540 1_545 S
C1473 F1476 1.357 . S
C1474 F1475 1.337 . S
C1474 F1477 1.347 . S
F1478 C1479 1.341 1_655 S
C1479 C1480 1.515 1_455 S
C1479 F1482 1.361 . S
C1480 F1481 1.337 . S
C1480 F1483 1.347 . S
F1484 C1485 1.346 . S
C1485 C1486 1.540 . S
C1485 F1488 1.357 . S
C1486 F1487 1.337 . S
C1486 F1489 1.347 . S
F1490 C1491 1.346 . S
C1491 C1492 1.540 1_655 S
C1491 F1494 1.357 1_655 S
C1492 F1493 1.337 1_455 S
C1492 F1495 1.347 . S
F1496 C1497 1.340 1_565 S
C1497 C1498 1.521 1_545 S
C1497 F1500 1.349 1_545 S
C1498 F1499 1.353 . S
C1498 F1501 1.347 . S
F1502 C1503 1.346 . S
C1503 C1504 1.540 . S
C1503 F1506 1.357 . S
C1504 F1505 1.337 . S
C1504 F1507 1.347 . S
F1508 C1509 1.346 . S
C1509 C1510 1.540 . S
C1509 F1512 1.357 1_554 S
C1510 F1511 1.337 . S
C1510 F1513 1.347 . S
F1514 C1515 1.346 . S
C1515 C1516 1.540 . S
C1515 F1518 1.357 . S
C1516 F1517 1.337 . S
C1516 F1519 1.347 . S
F1520 C1521 1.346 . S
C1521 C1522 1.540 . S
C1521 F1524 1.357 . S
C1522 F1523 1.337 . S
C1522 F1525 1.347 1_556 S
F1526 C1527 1.341 1_554 S
C1527 C1528 1.517 1_556 S
C1527 F1530 1.367 . S
C1528 F1529 1.337 . S
C1528 F1531 1.347 . S
F1532 C1533 1.346 . S
C1533 C1534 1.540 . S
C1533 F1536 1.357 . S
C1534 F1535 1.337 . S
C1534 F1537 1.347 . S
F1538 C1539 1.346 . S
C1539 C1540 1.540 . S
C1539 F1542 1.357 . S
C1540 F1541 1.337 . S
C1540 F1543 1.347 . S
F1544 C1545 1.346 . S
C1545 C1546 1.540 . S
C1545 F1548 1.357 . S
C1546 F1547 1.337 . S
C1546 F1549 1.347 . S
F1550 C1551 1.346 . S
C1551 C1552 1.540 . S
C1551 F1554 1.357 . S
C1552 F1553 1.337 . S
C1552 F1555 1.347 . S
F1556 C1557 1.346 . S
C1557 C1558 1.540 . S
C1557 F1560 1.357 . S
C1558 F1559 1.337 . S
C1558 F1561 1.347 . S
F1562 C1563 1.346 . S
C1563 C1564 1.540 . S
C1563 F1566 1.357 . S
C1564 F1565 1.337 . S
C1564 F1567 1.347 . S
F1568 C1569 1.346 . S
C1569 C1570 1.540 . S
C1569 F1572 1.357 . S
C1570 F1571 1.337 . S
C1570 F1573 1.347 . S
F1574 C1575 1.346 . S
C1575 C1576 1.540 . S
C1575 F1578 1.357 . S
C1576 F1577 1.337 . S
C1576 F1579 1.347 . S
F1580 C1581 1.346 . S
C1581 C1582 1.540 . S
C1581 F1584 1.357 . S
C1582 F1583 1.337 . S
C1582 F1585 1.347 . S
F1586 C1587 1.346 . S
C1587 C1588 1.540 . S
C1587 F1590 1.357 . S
C1588 F1589 1.337 . S
C1588 F1591 1.347 . S
F1592 C1593 1.346 . S
C1593 C1594 1.540 . S
C1593 F1596 1.357 . S
C1594 F1595 1.337 . S
C1594 F1597 1.347 . S
F1598 C1599 1.346 . S
C1599 C1600 1.540 . S
C1599 F1602 1.357 . S
C1600 F1601 1.337 . S
C1600 F1603 1.347 . S
F1604 C1605 1.346 . S
C1605 C1606 1.540 . S
C1605 F1608 1.357 . S
C1606 F1607 1.337 1_545 S
C1606 F1609 1.347 1_545 S
F1610 C1611 1.346 1_655 S
C1611 C1612 1.540 . S
C1611 F1614 1.357 . S
C1612 F1613 1.337 . S
C1612 F1615 1.347 . S
C1425 C1322 1.488 . S
C1426 C76 1.860 . S
C1431 C1411 1.518 . S
C1432 C165 1.840 . S
C1437 C254 1.496 . S
C1438 C788 1.625 . S
C1443 C343 0.879 . S
C1444 C877 1.405 . S
C1449 C966 1.239 . S
C1450 C432 1.047 . S
C1455 C521 1.328 . S
C1456 C1055 1.367 . S
C1461 C1144 1.865 . S
C1462 C610 1.295 . S
C1467 C699 1.730 . S
C1468 C1233 1.487 . S
C1473 C65 2.025 . S
C1474 C511 1.963 . S
C1479 C422 2.116 . S
C1480 C154 1.948 . S
C1485 C227 2.132 . S
C1486 C155 2.251 1_565 S
C1491 C243 1.284 . S
C1492 C316 1.117 . S
C1497 C421 0.698 . S
C1498 C332 0.954 . S
C1503 C510 1.134 . S
C1504 C599 0.914 . S
C1509 C600 1.182 1_554 S
C1510 C333 1.155 . S
C1515 C138 1.898 1_556 S
C1516 C49 1.981 . S
C1521 C494 1.525 . S
C1522 C244 1.784 1_556 S
C1527 C689 1.329 . S
C1528 C405 1.005 . S
C1533 C1028 1.754 . S
C1534 C778 1.815 . S
C1539 C850 1.637 . S
C1540 C1117 1.747 . S
C1545 C956 1.887 . S
C1546 C1223 1.883 . S
C1551 C1045 2.004 . S
C1552 C1133 1.832 . S
C1557 C1134 1.961 . S
C1558 C1206 1.790 . S
C1563 C1222 1.905 . S
C1564 C1295 1.649 . S
C1569 C1044 1.329 . S
C1570 C1311 1.346 . S
C1575 C1400 0.864 . S
C1576 C939 0.634 . S
C1581 C1384 1.901 . S
C1582 C777 2.125 . S
C1587 C867 2.481 . S
C1588 C761 2.281 . S
C1593 C955 1.652 . S
C1594 C866 1.762 . S
C1599 C1312 1.485 . S
C1600 C1401 1.453 . S
C1605 C688 1.670 . S
C1606 C583 1.377 1_545 S
C1611 C66 2.228 1_455 S
C1612 C672 2.061 . S
