# Generated by pormake.
# Topology pcb, (4)-cn, num edge types: 1
# Building blocks:
#     Node 0, Type 0, BuildingBlock: N192, # of connection points: 8
#     Node 1, Type 0, BuildingBlock: N192, # of connection points: 8
#     Node 2, Type 0, BuildingBlock: N192, # of connection points: 8
#     Node 3, Type 0, BuildingBlock: N192, # of connection points: 8
#     Node 4, Type 0, BuildingBlock: N192, # of connection points: 8
#     Node 5, Type 0, BuildingBlock: N192, # of connection points: 8
#     Node 6, Type 0, BuildingBlock: N192, # of connection points: 8
#     Node 7, Type 0, BuildingBlock: N192, # of connection points: 8
#     Node 8, Type 0, BuildingBlock: N192, # of connection points: 8
#     Node 9, Type 0, BuildingBlock: N192, # of connection points: 8
#     Node 10, Type 0, BuildingBlock: N192, # of connection points: 8
#     Node 11, Type 0, BuildingBlock: N192, # of connection points: 8
#     Node 12, Type 0, BuildingBlock: N192, # of connection points: 8
#     Node 13, Type 0, BuildingBlock: N192, # of connection points: 8
#     Node 14, Type 0, BuildingBlock: N192, # of connection points: 8
#     Node 15, Type 0, BuildingBlock: N192, # of connection points: 8
#     Edge 16, Type (0, 0), BuildingBlock: E190, # of connection points: 2
#     Edge 17, Type (0, 0), BuildingBlock: E190, # of connection points: 2
#     Edge 18, Type (0, 0), BuildingBlock: E190, # of connection points: 2
#     Edge 19, Type (0, 0), BuildingBlock: E190, # of connection points: 2
#     Edge 20, Type (0, 0), BuildingBlock: E190, # of connection points: 2
#     Edge 21, Type (0, 0), BuildingBlock: E190, # of connection points: 2
#     Edge 22, Type (0, 0), BuildingBlock: E190, # of connection points: 2
#     Edge 23, Type (0, 0), BuildingBlock: E190, # of connection points: 2
#     Edge 24, Type (0, 0), BuildingBlock: E190, # of connection points: 2
#     Edge 25, Type (0, 0), BuildingBlock: E190, # of connection points: 2
#     Edge 26, Type (0, 0), BuildingBlock: E190, # of connection points: 2
#     Edge 27, Type (0, 0), BuildingBlock: E190, # of connection points: 2
#     Edge 28, Type (0, 0), BuildingBlock: E190, # of connection points: 2
#     Edge 29, Type (0, 0), BuildingBlock: E190, # of connection points: 2
#     Edge 30, Type (0, 0), BuildingBlock: E190, # of connection points: 2
#     Edge 31, Type (0, 0), BuildingBlock: E190, # of connection points: 2
#     Edge 32, Type (0, 0), BuildingBlock: E190, # of connection points: 2
#     Edge 33, Type (0, 0), BuildingBlock: E190, # of connection points: 2
#     Edge 34, Type (0, 0), BuildingBlock: E190, # of connection points: 2
#     Edge 35, Type (0, 0), BuildingBlock: E190, # of connection points: 2
#     Edge 36, Type (0, 0), BuildingBlock: E190, # of connection points: 2
#     Edge 37, Type (0, 0), BuildingBlock: E190, # of connection points: 2
#     Edge 38, Type (0, 0), BuildingBlock: E190, # of connection points: 2
#     Edge 39, Type (0, 0), BuildingBlock: E190, # of connection points: 2
#     Edge 40, Type (0, 0), BuildingBlock: E190, # of connection points: 2
#     Edge 41, Type (0, 0), BuildingBlock: E190, # of connection points: 2
#     Edge 42, Type (0, 0), BuildingBlock: E190, # of connection points: 2
#     Edge 43, Type (0, 0), BuildingBlock: E190, # of connection points: 2
#     Edge 44, Type (0, 0), BuildingBlock: E190, # of connection points: 2
#     Edge 45, Type (0, 0), BuildingBlock: E190, # of connection points: 2
#     Edge 46, Type (0, 0), BuildingBlock: E190, # of connection points: 2
#     Edge 47, Type (0, 0), BuildingBlock: E190, # of connection points: 2
# Relax obj value: 0.650
# Max RMSD: 0.719
# Mean RMSD: 0.286
data_pcb+N192+E190
_symmetry_space_group_name_H-M    P1
_symmetry_Int_Tables_number       1
_symmetry_cell_setting            triclinic
loop_
_symmetry_equiv_pos_as_xyz
'x, y, z'
_cell_length_a     39.301
_cell_length_b     45.052
_cell_length_c     56.998
_cell_angle_alpha  99.456
_cell_angle_beta   101.201
_cell_angle_gamma  129.686
loop_
_atom_site_label
_atom_site_type_symbol
_atom_site_fract_x
_atom_site_fract_y
_atom_site_fract_z
_atom_type_partial_charge
O0 O 0.58273 0.04225 0.79295 0.00000
N1 N 0.52677 0.91971 0.78205 0.00000
O2 O 0.64051 0.10201 0.82678 0.00000
C3 C 0.60836 0.08043 0.80401 0.00000
C4 C 0.47866 0.83684 0.76507 0.00000
C5 C 0.46226 0.85154 0.77757 0.00000
H6 H 0.42734 0.82921 0.78043 0.00000
C7 C 0.48826 0.89288 0.78638 0.00000
H8 H 0.47698 0.90577 0.79815 0.00000
O9 O 0.66868 0.05560 0.81529 0.00000
O10 O 0.61250 0.99755 0.78019 0.00000
H11 H 0.67940 0.11497 0.94278 0.00000
C12 C 0.65586 0.03103 0.79406 0.00000
N13 N 0.65610 0.10533 0.88067 0.00000
C14 C 0.66266 0.09823 0.90171 0.00000
C15 C 0.67082 0.12061 0.92472 0.00000
H16 H 0.66127 0.07187 0.90003 0.00000
H17 H 0.80874 0.21929 0.86048 0.00000
C18 C 0.79410 0.19024 0.86473 0.00000
C19 C 0.74621 0.15615 0.85442 0.00000
H20 H 0.72075 0.15545 0.84013 0.00000
C21 C 0.49754 0.95035 0.71154 0.00000
H22 H 0.50923 0.94927 0.69487 0.00000
C23 C 0.52757 0.96547 0.73605 0.00000
H24 H 0.56572 0.97964 0.74025 0.00000
O25 O 0.57493 0.03226 0.84257 0.00000
N26 N 0.72688 0.12296 0.86007 0.00000
O27 O 0.51493 0.97325 0.80859 0.00000
C28 C 0.53138 0.00010 0.83028 0.00000
C29 C 0.82489 0.18928 0.88047 0.00000
O30 O 0.59837 0.98263 0.82775 0.00000
N31 N 0.51497 0.96473 0.75578 0.00000
O32 O 0.65678 0.03994 0.86300 0.00000
C33 C 0.62912 0.00125 0.85021 0.00000
C34 C 0.45259 0.93627 0.70706 0.00000
C35 C 0.44010 0.93605 0.72826 0.00000
H36 H 0.40281 0.92277 0.72584 0.00000
C37 C 0.47280 0.95183 0.75199 0.00000
H38 H 0.46423 0.95437 0.76979 0.00000
C39 C 0.66124 0.15715 0.90340 0.00000
H40 H 0.66165 0.18266 0.90329 0.00000
C41 C 0.65353 0.13307 0.88139 0.00000
H42 H 0.64434 0.13643 0.86237 0.00000
C43 C 0.80368 0.15370 0.88605 0.00000
H44 H 0.82649 0.15160 0.89998 0.00000
C45 C 0.75534 0.12131 0.87474 0.00000
H46 H 0.73768 0.09090 0.87780 0.00000
C47 C 0.51970 0.86584 0.76085 0.00000
H48 H 0.53376 0.85571 0.74946 0.00000
C49 C 0.54303 0.90652 0.77044 0.00000
H50 H 0.57846 0.93104 0.76861 0.00000
Ni51 Ni 0.56214 0.98382 0.79346 0.00000
Ni52 Ni 0.65021 0.07255 0.84582 0.00000
C53 C 0.66858 0.15035 0.92596 0.00000
O54 O 0.94348 0.32761 0.21300 0.00000
N55 N 0.84538 0.19563 0.19601 0.00000
O56 O 0.01311 0.38053 0.24603 0.00000
C57 C 0.97990 0.36565 0.22494 0.00000
C58 C 0.77169 0.11022 0.17619 0.00000
C59 C 0.77053 0.13555 0.19280 0.00000
H60 H 0.73805 0.12148 0.19807 0.00000
C61 C 0.80855 0.17737 0.20276 0.00000
H62 H 0.80951 0.19837 0.21772 0.00000
O63 O 0.00539 0.31068 0.22526 0.00000
O64 O 0.93747 0.25922 0.19091 0.00000
H65 H 0.05626 0.38424 0.35993 0.00000
C66 C 0.98265 0.28436 0.20272 0.00000
N67 N 0.03026 0.37985 0.29898 0.00000
C68 C 0.03296 0.36884 0.31866 0.00000
C69 C 0.05191 0.39430 0.34340 0.00000
H70 H 0.01845 0.33622 0.31420 0.00000
H71 H 0.17979 0.46170 0.27000 0.00000
C72 C 0.15644 0.43113 0.27311 0.00000
C73 C 0.10855 0.40713 0.26547 0.00000
H74 H 0.09104 0.41604 0.25441 0.00000
C75 C 0.83541 0.24401 0.13186 0.00000
H76 H 0.84020 0.23757 0.11317 0.00000
C77 C 0.86422 0.25166 0.15427 0.00000
H78 H 0.89529 0.25437 0.15483 0.00000
O79 O 0.93903 0.31941 0.26338 0.00000
N80 N 0.08037 0.37326 0.27019 0.00000
O81 O 0.86839 0.26831 0.23060 0.00000
C82 C 0.89453 0.29596 0.25335 0.00000
C83 C 0.17653 0.41804 0.28472 0.00000
O84 O 0.92639 0.24730 0.23952 0.00000
N85 N 0.85828 0.25625 0.17599 0.00000
O86 O 0.99532 0.29694 0.27363 0.00000
C87 C 0.95721 0.25902 0.26016 0.00000
C88 C 0.80019 0.24413 0.13197 0.00000
C89 C 0.79475 0.24936 0.15522 0.00000
H90 H 0.76486 0.24749 0.15646 0.00000
C91 C 0.82545 0.25676 0.17655 0.00000
H92 H 0.82344 0.26382 0.19611 0.00000
C93 C 0.06238 0.44351 0.32715 0.00000
H94 H 0.07566 0.47540 0.32983 0.00000
C95 C 0.04294 0.41576 0.30317 0.00000
H96 H 0.03695 0.42316 0.28549 0.00000
C97 C 0.14596 0.38193 0.28936 0.00000
H98 H 0.16039 0.37054 0.30010 0.00000
C99 C 0.09857 0.36021 0.28096 0.00000
H100 H 0.07254 0.32911 0.28312 0.00000
C101 C 0.81119 0.13020 0.16944 0.00000
H102 H 0.81338 0.11157 0.15478 0.00000
C103 C 0.84732 0.17226 0.18049 0.00000
H104 H 0.88136 0.18891 0.17645 0.00000
Ni105 Ni 0.90106 0.26238 0.20985 0.00000
Ni106 Ni 0.00608 0.34012 0.26073 0.00000
C107 C 0.06587 0.43260 0.34829 0.00000
O108 O 0.89064 0.91113 0.19446 0.00000
N109 N 0.75761 0.82553 0.20395 0.00000
O110 O 0.96595 0.95355 0.22257 0.00000
C111 C 0.93489 0.93798 0.20029 0.00000
C112 C 0.66413 0.76742 0.19935 0.00000
C113 C 0.68923 0.80945 0.20654 0.00000
H114 H 0.67107 0.82083 0.20999 0.00000
C115 C 0.73575 0.83699 0.20945 0.00000
H116 H 0.75774 0.87187 0.21697 0.00000
O117 O 0.90464 0.86955 0.22508 0.00000
O118 O 0.83032 0.82618 0.19550 0.00000
H119 H 0.03501 0.04603 0.34189 0.00000
C120 C 0.86829 0.83508 0.20753 0.00000
N121 N 0.99541 0.99598 0.27829 0.00000
C122 C 0.99757 0.00355 0.30201 0.00000
C123 C 0.03309 0.04172 0.32125 0.00000
H124 H 0.96776 0.97623 0.30610 0.00000
H125 H 0.08887 0.95537 0.25175 0.00000
C126 C 0.06108 0.94305 0.26074 0.00000
C127 C 0.02494 0.94110 0.25186 0.00000
H128 H 0.02041 0.94919 0.23430 0.00000
C129 C 0.75901 0.81367 0.12199 0.00000
H130 H 0.74746 0.78566 0.10689 0.00000
C131 C 0.78413 0.82625 0.14720 0.00000
H132 H 0.79649 0.81061 0.15316 0.00000
O133 O 0.90653 0.95677 0.24587 0.00000
N134 N 0.99399 0.93013 0.26259 0.00000
O135 O 0.83228 0.91696 0.21714 0.00000
C136 C 0.87079 0.95089 0.23513 0.00000
C137 C 0.06377 0.92989 0.28083 0.00000
O138 O 0.84059 0.87044 0.24513 0.00000
N139 N 0.79540 0.85625 0.16570 0.00000
O140 O 0.91386 0.91120 0.27531 0.00000
C141 C 0.86844 0.88395 0.26757 0.00000
C142 C 0.74758 0.83526 0.11486 0.00000
C143 C 0.76016 0.86712 0.13473 0.00000
H144 H 0.74960 0.88467 0.13049 0.00000
C145 C 0.78524 0.87721 0.15935 0.00000
H146 H 0.79854 0.90503 0.17567 0.00000
C147 C 0.06376 0.06666 0.29020 0.00000
H148 H 0.09183 0.09222 0.28437 0.00000
C149 C 0.02681 0.02732 0.27241 0.00000
H150 H 0.02195 0.02028 0.25124 0.00000
C151 C 0.03042 0.91811 0.29179 0.00000
H152 H 0.03205 0.90918 0.30927 0.00000
C153 C 0.99570 0.91732 0.28146 0.00000
H154 H 0.96622 0.90514 0.28915 0.00000
C155 C 0.68807 0.75601 0.19380 0.00000
H156 H 0.66893 0.72182 0.18639 0.00000
C157 C 0.73465 0.78603 0.19730 0.00000
H158 H 0.75570 0.77745 0.19446 0.00000
Ni159 Ni 0.82929 0.87045 0.20554 0.00000
Ni160 Ni 0.94191 0.93350 0.24972 0.00000
C161 C 0.06692 0.07532 0.31549 0.00000
O162 O 0.47096 0.99582 0.20568 0.00000
N163 N 0.31943 0.89772 0.18729 0.00000
O164 O 0.52715 0.05729 0.23831 0.00000
C165 C 0.51342 0.03004 0.21777 0.00000
C166 C 0.22292 0.82679 0.16689 0.00000
C167 C 0.24080 0.86043 0.15953 0.00000
H168 H 0.21585 0.85896 0.14414 0.00000
C169 C 0.28843 0.89521 0.17088 0.00000
H170 H 0.30319 0.92404 0.16629 0.00000
O171 O 0.46348 0.98967 0.25600 0.00000
O172 O 0.40983 0.92777 0.22370 0.00000
H173 H 0.48893 0.16493 0.28732 0.00000
C174 C 0.44135 0.95204 0.24659 0.00000
N175 N 0.50620 0.10595 0.26007 0.00000
C176 C 0.48650 0.11694 0.26981 0.00000
C177 C 0.50579 0.15647 0.27743 0.00000
H178 H 0.45161 0.09148 0.27175 0.00000
H179 H 0.64070 0.12001 0.32348 0.00000
C180 C 0.60218 0.10412 0.32013 0.00000
C181 C 0.56921 0.08490 0.29579 0.00000
H182 H 0.57906 0.08222 0.27854 0.00000
C183 C 0.39613 0.87069 0.14995 0.00000
H184 H 0.39941 0.84781 0.15210 0.00000
C185 C 0.40076 0.89464 0.17056 0.00000
H186 H 0.41104 0.89396 0.19047 0.00000
O187 O 0.43811 0.03894 0.21535 0.00000
N188 N 0.52536 0.06875 0.29076 0.00000
O189 O 0.38342 0.97906 0.18138 0.00000
C190 C 0.40767 0.01748 0.19261 0.00000
C191 C 0.58845 0.10418 0.34082 0.00000
O192 O 0.37234 0.96727 0.23002 0.00000
N193 N 0.39389 0.91927 0.16892 0.00000
O194 O 0.42449 0.02758 0.26365 0.00000
C195 C 0.38246 0.99214 0.25008 0.00000
C196 C 0.38738 0.87439 0.12630 0.00000
C197 C 0.38058 0.90088 0.12504 0.00000
H198 H 0.37061 0.90375 0.10595 0.00000
C199 C 0.38593 0.92343 0.14681 0.00000
H200 H 0.38358 0.94731 0.14645 0.00000
C201 C 0.56622 0.17396 0.26251 0.00000
H202 H 0.60089 0.19733 0.25969 0.00000
C203 C 0.54412 0.13362 0.25559 0.00000
H204 H 0.55838 0.12238 0.24540 0.00000
C205 C 0.54174 0.08663 0.33505 0.00000
H206 H 0.52874 0.08760 0.35111 0.00000
C207 C 0.51158 0.06822 0.31001 0.00000
H208 H 0.47229 0.05131 0.30489 0.00000
C209 C 0.25635 0.83023 0.18444 0.00000
H210 H 0.24466 0.80302 0.19029 0.00000
C211 C 0.30325 0.86642 0.19463 0.00000
H212 H 0.33065 0.87069 0.21030 0.00000
Ni213 Ni 0.39516 0.95177 0.20165 0.00000
Ni214 Ni 0.47728 0.04408 0.25187 0.00000
C215 C 0.54615 0.18635 0.27303 0.00000
O216 O 0.47312 0.46593 0.18015 0.00000
N217 N 0.32657 0.40887 0.15665 0.00000
O218 O 0.51874 0.47224 0.21436 0.00000
C219 C 0.51183 0.47793 0.19359 0.00000
C220 C 0.23617 0.37752 0.13309 0.00000
C221 C 0.27393 0.41829 0.15094 0.00000
H222 H 0.26869 0.44035 0.15574 0.00000
C223 C 0.31731 0.43170 0.16269 0.00000
H224 H 0.34776 0.46414 0.17860 0.00000
O225 O 0.42043 0.38705 0.18962 0.00000
O226 O 0.37610 0.37977 0.15419 0.00000
H227 H 0.50784 0.50012 0.32414 0.00000
C228 C 0.39207 0.36731 0.16644 0.00000
N229 N 0.51153 0.48556 0.26529 0.00000
C230 C 0.49496 0.48205 0.28356 0.00000
C231 C 0.52390 0.50626 0.30889 0.00000
H232 H 0.45425 0.45728 0.27730 0.00000
H233 H 0.56028 0.40082 0.23978 0.00000
C234 C 0.52685 0.39263 0.24118 0.00000
C235 C 0.51390 0.41189 0.23310 0.00000
H236 H 0.53454 0.43429 0.22335 0.00000
C237 C 0.39924 0.43602 0.09797 0.00000
H238 H 0.38712 0.41190 0.07933 0.00000
C239 C 0.39775 0.42756 0.11964 0.00000
H240 H 0.38737 0.39748 0.11974 0.00000
O241 O 0.46489 0.49231 0.22851 0.00000
N242 N 0.47797 0.40609 0.23593 0.00000
O243 O 0.42237 0.48933 0.19467 0.00000
C244 C 0.45111 0.50707 0.21808 0.00000
C245 C 0.49899 0.36295 0.25113 0.00000
O246 O 0.36548 0.40791 0.20071 0.00000
N247 N 0.40784 0.45267 0.14112 0.00000
O248 O 0.40670 0.41185 0.23577 0.00000
C249 C 0.36891 0.40089 0.22089 0.00000
C250 C 0.41565 0.47427 0.09880 0.00000
C251 C 0.42648 0.50052 0.12180 0.00000
H252 H 0.43758 0.53139 0.12347 0.00000
C253 C 0.42372 0.48906 0.14236 0.00000
H254 H 0.43550 0.51143 0.16184 0.00000
C255 C 0.58986 0.54181 0.29629 0.00000
H256 H 0.63003 0.56598 0.30080 0.00000
C257 C 0.55785 0.51595 0.27155 0.00000
H258 H 0.57078 0.52009 0.25504 0.00000
C259 C 0.46090 0.35708 0.25378 0.00000
H260 H 0.43808 0.33496 0.26312 0.00000
C261 C 0.45101 0.37799 0.24512 0.00000
H262 H 0.41801 0.37148 0.24561 0.00000
C263 C 0.24669 0.35379 0.12712 0.00000
H264 H 0.21822 0.32086 0.11159 0.00000
C265 C 0.29133 0.37020 0.13997 0.00000
H266 H 0.29963 0.35019 0.13650 0.00000
Ni267 Ni 0.39806 0.43441 0.17349 0.00000
Ni268 Ni 0.46389 0.44219 0.22600 0.00000
C269 C 0.57312 0.53846 0.31597 0.00000
O270 O 0.54337 0.65294 0.79270 0.00000
N271 N 0.61678 0.61430 0.78141 0.00000
O272 O 0.47956 0.62289 0.80261 0.00000
C273 C 0.51298 0.65185 0.79740 0.00000
C274 C 0.67586 0.60464 0.77229 0.00000
C275 C 0.63523 0.58895 0.75237 0.00000
H276 H 0.62607 0.57263 0.73145 0.00000
C277 C 0.60638 0.59324 0.75804 0.00000
H278 H 0.57129 0.57817 0.74216 0.00000
O279 O 0.54859 0.62273 0.83474 0.00000
O280 O 0.61417 0.65583 0.82630 0.00000
H281 H 0.30559 0.42711 0.76265 0.00000
C282 C 0.59318 0.64825 0.84184 0.00000
N283 N 0.39924 0.53064 0.78286 0.00000
C284 C 0.37424 0.49079 0.77678 0.00000
C285 C 0.32561 0.46102 0.76600 0.00000
H286 H 0.39528 0.48166 0.78097 0.00000
H287 H 0.43979 0.62288 0.87592 0.00000
C288 C 0.44531 0.60171 0.86860 0.00000
C289 C 0.45832 0.60266 0.84824 0.00000
H290 H 0.46681 0.62651 0.83946 0.00000
C291 C 0.69123 0.75069 0.79592 0.00000
H292 H 0.72593 0.77975 0.81287 0.00000
C293 C 0.65844 0.71569 0.79982 0.00000
H294 H 0.66400 0.71603 0.82029 0.00000
O295 O 0.46573 0.56132 0.76204 0.00000
N296 N 0.46180 0.57700 0.83774 0.00000
O297 O 0.52792 0.59191 0.75063 0.00000
C298 C 0.48314 0.56671 0.74531 0.00000
C299 C 0.43885 0.57473 0.88035 0.00000
O300 O 0.53969 0.56537 0.79340 0.00000
N301 N 0.61956 0.68042 0.78088 0.00000
O302 O 0.47573 0.53174 0.80334 0.00000
C303 C 0.50808 0.53557 0.79833 0.00000
C304 C 0.68200 0.75066 0.77112 0.00000
C305 C 0.64045 0.71306 0.75137 0.00000
H306 H 0.63185 0.71004 0.73034 0.00000
C307 C 0.61003 0.67981 0.75734 0.00000
H308 H 0.57429 0.64955 0.74159 0.00000
C309 C 0.32787 0.51468 0.76557 0.00000
H310 H 0.30977 0.52653 0.76185 0.00000
C311 C 0.37639 0.54195 0.77637 0.00000
H312 H 0.39927 0.57646 0.78021 0.00000
C313 C 0.44306 0.54805 0.86903 0.00000
H314 H 0.43561 0.52347 0.87672 0.00000
C315 C 0.45617 0.55150 0.84865 0.00000
H316 H 0.46282 0.53171 0.84022 0.00000
C317 C 0.68600 0.62658 0.79691 0.00000
H318 H 0.72015 0.64234 0.81397 0.00000
C319 C 0.65480 0.62911 0.80052 0.00000
H320 H 0.66100 0.64465 0.82086 0.00000
Ni321 Ni 0.57277 0.62473 0.78820 0.00000
Ni322 Ni 0.47592 0.57645 0.80324 0.00000
C323 C 0.30067 0.47234 0.75913 0.00000
O324 O 0.06273 0.63300 0.74986 0.00000
N325 N 0.92647 0.58823 0.74701 0.00000
O326 O 0.13527 0.68241 0.78144 0.00000
C327 C 0.10682 0.65435 0.75886 0.00000
C328 C 0.83226 0.54867 0.73492 0.00000
C329 C 0.86369 0.58386 0.72964 0.00000
H330 H 0.85072 0.59659 0.71936 0.00000
C331 C 0.91017 0.60304 0.73685 0.00000
H332 H 0.93709 0.63347 0.73418 0.00000
O333 O 0.06138 0.62734 0.80107 0.00000
O334 O 0.98958 0.57591 0.76919 0.00000
H335 H 0.20673 0.84689 0.85861 0.00000
C336 C 0.02319 0.58978 0.78968 0.00000
N337 N 0.16606 0.75887 0.81673 0.00000
C338 C 0.16764 0.78450 0.83286 0.00000
C339 C 0.20590 0.82628 0.84341 0.00000
H340 H 0.13488 0.77013 0.83790 0.00000
H341 H 0.23816 0.69912 0.85352 0.00000
C342 C 0.21046 0.69983 0.85576 0.00000
C343 C 0.17988 0.69362 0.83503 0.00000
H344 H 0.17966 0.68498 0.81501 0.00000
C345 C 0.93219 0.50958 0.68765 0.00000
H346 H 0.91663 0.47695 0.68497 0.00000
C347 C 0.95455 0.53839 0.71171 0.00000
H348 H 0.96061 0.53097 0.72936 0.00000
O349 O 0.08313 0.70921 0.77460 0.00000
N350 N 0.14965 0.69707 0.83672 0.00000
O351 O 0.01222 0.66112 0.74164 0.00000
C352 C 0.05207 0.69848 0.75453 0.00000
C353 C 0.20759 0.70704 0.87962 0.00000
O354 O 0.00500 0.65001 0.79093 0.00000
N355 N 0.97006 0.57539 0.71600 0.00000
O356 O 0.07517 0.70012 0.82419 0.00000
C357 C 0.03016 0.67695 0.81339 0.00000
C358 C 0.92854 0.52030 0.66643 0.00000
C359 C 0.94552 0.55974 0.67143 0.00000
H360 H 0.94132 0.56989 0.65492 0.00000
C361 C 0.96725 0.58622 0.69625 0.00000
H362 H 0.98416 0.61960 0.70071 0.00000
C363 C 0.24128 0.81586 0.81825 0.00000
H364 H 0.27228 0.82758 0.81199 0.00000
C365 C 0.20138 0.77455 0.80887 0.00000
H366 H 0.19738 0.75171 0.79344 0.00000
C367 C 0.17508 0.71026 0.88092 0.00000
H368 H 0.17261 0.71844 0.90014 0.00000
C369 C 0.14614 0.70356 0.85903 0.00000
H370 H 0.11715 0.70340 0.85947 0.00000
C371 C 0.85036 0.53370 0.74586 0.00000
H372 H 0.82603 0.50365 0.74941 0.00000
C373 C 0.89746 0.55521 0.75231 0.00000
H374 H 0.91355 0.54484 0.76284 0.00000
Ni375 Ni 0.99897 0.61717 0.75454 0.00000
Ni376 Ni 0.10715 0.69261 0.80369 0.00000
C377 C 0.24385 0.84354 0.83549 0.00000
O378 O 0.00112 0.07305 0.75879 0.00000
N379 N 0.04415 0.00799 0.74067 0.00000
O380 O 0.04394 0.13726 0.78610 0.00000
C381 C 0.00485 0.10205 0.76940 0.00000
C382 C 0.05177 0.95305 0.72220 0.00000
C383 C 0.03999 0.95461 0.74353 0.00000
H384 H 0.03170 0.93210 0.75353 0.00000
C385 C 0.03844 0.98330 0.75242 0.00000
H386 H 0.03193 0.98680 0.77089 0.00000
O387 O 0.09542 0.13521 0.75503 0.00000
O388 O 0.05093 0.07155 0.72626 0.00000
H389 H 0.21535 0.22636 0.89290 0.00000
C390 C 0.07836 0.11062 0.73269 0.00000
N391 N 0.12370 0.17668 0.83597 0.00000
C392 C 0.16264 0.19037 0.85351 0.00000
C393 C 0.17966 0.21291 0.87876 0.00000
H394 H 0.18235 0.18250 0.84667 0.00000
H395 H 0.13586 0.27463 0.78801 0.00000
C396 C 0.15353 0.26230 0.79109 0.00000
C397 C 0.12705 0.22262 0.78966 0.00000
H398 H 0.08650 0.20067 0.78372 0.00000
C399 C 0.90116 0.95981 0.68586 0.00000
H400 H 0.89142 0.95654 0.66480 0.00000
C401 C 0.94620 0.99334 0.70365 0.00000
H402 H 0.97356 0.01966 0.69797 0.00000
O403 O 0.06601 0.09430 0.80947 0.00000
N404 N 0.14590 0.20756 0.79487 0.00000
O405 O 0.02032 0.02897 0.78293 0.00000
C406 C 0.03931 0.05630 0.80497 0.00000
C407 C 0.20220 0.28756 0.79634 0.00000
O408 O 0.11180 0.08707 0.77595 0.00000
N409 N 0.96059 0.99740 0.72772 0.00000
O410 O 0.15914 0.15185 0.80396 0.00000
C411 C 0.15181 0.12066 0.79218 0.00000
C412 C 0.86721 0.92967 0.69359 0.00000
C413 C 0.88313 0.93475 0.71921 0.00000
H414 H 0.85803 0.91010 0.72660 0.00000
C415 C 0.92902 0.96944 0.73545 0.00000
H416 H 0.94171 0.97537 0.75690 0.00000
C417 C 0.11184 0.20432 0.86824 0.00000
H418 H 0.08971 0.21045 0.87342 0.00000
C419 C 0.09797 0.18218 0.84348 0.00000
H420 H 0.06253 0.16733 0.82809 0.00000
C421 C 0.22135 0.27088 0.80161 0.00000
H422 H 0.26151 0.29055 0.80749 0.00000
C423 C 0.19172 0.23081 0.79969 0.00000
H424 H 0.20632 0.21585 0.80230 0.00000
C425 C 0.05802 0.97968 0.71018 0.00000
H426 H 0.06509 0.97854 0.69173 0.00000
C427 C 0.05562 0.00720 0.72061 0.00000
H428 H 0.06377 0.03108 0.71195 0.00000
Ni429 Ni 0.03441 0.04852 0.75385 0.00000
Ni430 Ni 0.10276 0.14629 0.79577 0.00000
C431 C 0.15315 0.21935 0.88711 0.00000
O432 O 0.62065 0.68241 0.31207 0.00000
N433 N 0.65382 0.60944 0.29303 0.00000
O434 O 0.66244 0.74211 0.34461 0.00000
C435 C 0.62589 0.71162 0.32425 0.00000
C436 C 0.65673 0.55197 0.27232 0.00000
C437 C 0.63607 0.54822 0.29020 0.00000
H438 H 0.61836 0.52030 0.29621 0.00000
C439 C 0.63715 0.57821 0.30051 0.00000
H440 H 0.62318 0.57700 0.31644 0.00000
O441 O 0.72438 0.74409 0.32084 0.00000
O442 O 0.68187 0.68567 0.28697 0.00000
H443 H 0.79144 0.79073 0.45688 0.00000
C444 C 0.71341 0.72510 0.29802 0.00000
N445 N 0.72190 0.76236 0.39681 0.00000
C446 C 0.75286 0.76809 0.41586 0.00000
C447 C 0.76193 0.78383 0.44101 0.00000
H448 H 0.77251 0.75918 0.41048 0.00000
H449 H 0.77894 0.88786 0.36524 0.00000
C450 C 0.79094 0.87091 0.36791 0.00000
C451 C 0.75778 0.82908 0.36120 0.00000
H452 H 0.71788 0.81042 0.35132 0.00000
C453 C 0.53608 0.58771 0.23158 0.00000
H454 H 0.53629 0.59177 0.21237 0.00000
C455 C 0.57723 0.61527 0.25312 0.00000
H456 H 0.61145 0.64407 0.25246 0.00000
O457 O 0.66169 0.68334 0.36227 0.00000
N458 N 0.76922 0.80822 0.36553 0.00000
O459 O 0.61662 0.62243 0.33010 0.00000
C460 C 0.63017 0.64443 0.35304 0.00000
C461 C 0.83947 0.89269 0.37803 0.00000
O462 O 0.71831 0.68082 0.33552 0.00000
N463 N 0.58009 0.61064 0.27533 0.00000
O464 O 0.76409 0.74045 0.36902 0.00000
C465 C 0.75556 0.70951 0.35538 0.00000
C466 C 0.49389 0.55462 0.23322 0.00000
C467 C 0.49767 0.55048 0.25697 0.00000
H468 H 0.46512 0.52280 0.25941 0.00000
C469 C 0.54060 0.57978 0.27733 0.00000
H470 H 0.54358 0.57830 0.29732 0.00000
C471 C 0.70209 0.78480 0.42664 0.00000
H472 H 0.68058 0.79254 0.43026 0.00000
C473 C 0.69580 0.76902 0.40216 0.00000
H474 H 0.66679 0.76090 0.38509 0.00000
C475 C 0.85078 0.86993 0.38228 0.00000
H476 H 0.88980 0.88606 0.39186 0.00000
C477 C 0.81483 0.82815 0.37490 0.00000
H478 H 0.82361 0.80870 0.37670 0.00000
C479 C 0.67449 0.58545 0.26481 0.00000
H480 H 0.68952 0.58927 0.24917 0.00000
C481 C 0.67378 0.61370 0.27630 0.00000
H482 H 0.69105 0.64277 0.27158 0.00000
Ni483 Ni 0.64807 0.65244 0.30764 0.00000
Ni484 Ni 0.71444 0.74289 0.35770 0.00000
C485 C 0.73493 0.79138 0.44712 0.00000
O486 O 0.20398 0.68150 0.25601 0.00000
N487 N 0.13890 0.55455 0.23385 0.00000
O488 O 0.24999 0.73273 0.29470 0.00000
C489 C 0.22809 0.71818 0.27041 0.00000
C490 C 0.09008 0.47229 0.20948 0.00000
C491 C 0.06813 0.48382 0.21841 0.00000
H492 H 0.02856 0.45930 0.21513 0.00000
C493 C 0.09430 0.52471 0.23112 0.00000
H494 H 0.07771 0.53449 0.24004 0.00000
O495 O 0.27936 0.68660 0.28672 0.00000
O496 O 0.23590 0.63763 0.24727 0.00000
H497 H 0.22381 0.70443 0.39739 0.00000
C498 C 0.27569 0.66801 0.26616 0.00000
N499 N 0.23501 0.71673 0.34195 0.00000
C500 C 0.22861 0.70144 0.36008 0.00000
C501 C 0.22628 0.71711 0.38141 0.00000
H502 H 0.22495 0.67375 0.35729 0.00000
H503 H 0.41445 0.84426 0.35060 0.00000
C504 C 0.39368 0.81172 0.35088 0.00000
C505 C 0.34720 0.77948 0.33433 0.00000
H506 H 0.32970 0.78422 0.31897 0.00000
C507 C 0.15388 0.61321 0.17245 0.00000
H508 H 0.17516 0.61787 0.16003 0.00000
C509 C 0.17186 0.62022 0.19762 0.00000
H510 H 0.20961 0.63340 0.20685 0.00000
O511 O 0.16625 0.65304 0.29598 0.00000
N512 N 0.32040 0.74206 0.33496 0.00000
O513 O 0.11817 0.60270 0.25690 0.00000
C514 C 0.12551 0.62345 0.27844 0.00000
C515 C 0.41553 0.80461 0.36808 0.00000
O516 O 0.19238 0.60472 0.28444 0.00000
N517 N 0.14766 0.61252 0.21239 0.00000
O518 O 0.23791 0.65281 0.32428 0.00000
C519 C 0.21269 0.61623 0.30815 0.00000
C520 C 0.10943 0.60032 0.16208 0.00000
C521 C 0.08458 0.59264 0.17812 0.00000
H522 H 0.04676 0.57978 0.17053 0.00000
C523 C 0.10577 0.60061 0.20302 0.00000
H524 H 0.08717 0.59707 0.21687 0.00000
C525 C 0.23339 0.76416 0.36399 0.00000
H526 H 0.23698 0.79160 0.36512 0.00000
C527 C 0.23538 0.74631 0.34348 0.00000
H528 H 0.23751 0.75687 0.32651 0.00000
C529 C 0.38657 0.76468 0.36830 0.00000
H530 H 0.40128 0.75709 0.38287 0.00000
C531 C 0.34043 0.73462 0.35094 0.00000
H532 H 0.31714 0.70110 0.34974 0.00000
C533 C 0.13744 0.50439 0.21274 0.00000
H534 H 0.15695 0.49739 0.20463 0.00000
C535 C 0.16038 0.54431 0.22572 0.00000
H536 H 0.20015 0.57082 0.23002 0.00000
Ni537 Ni 0.17580 0.61882 0.25102 0.00000
Ni538 Ni 0.24518 0.69411 0.31055 0.00000
C539 C 0.22693 0.74864 0.38351 0.00000
O540 O 0.02101 0.11446 0.17607 0.00000
N541 N 0.00612 0.08371 0.24332 0.00000
O542 O 0.06733 0.17612 0.17281 0.00000
C543 C 0.03615 0.13658 0.16305 0.00000
C544 C 0.98289 0.04720 0.27885 0.00000
C545 C 0.95758 0.05576 0.26670 0.00000
H546 H 0.92533 0.04664 0.27061 0.00000
C547 C 0.97161 0.07517 0.25006 0.00000
H548 H 0.95321 0.08485 0.24123 0.00000
O549 O 0.12085 0.17434 0.21623 0.00000
O550 O 0.07562 0.11168 0.21814 0.00000
H551 H 0.11757 0.33291 0.24448 0.00000
C552 C 0.11447 0.14419 0.21838 0.00000
N553 N 0.08886 0.24809 0.20716 0.00000
C554 C 0.10151 0.27667 0.22753 0.00000
C555 C 0.10333 0.30727 0.22604 0.00000
H556 H 0.11123 0.27494 0.24712 0.00000
H557 H 0.22209 0.27800 0.17267 0.00000
C558 C 0.21741 0.27858 0.19181 0.00000
C559 C 0.17361 0.24871 0.19201 0.00000
H560 H 0.14203 0.22145 0.17322 0.00000
C561 C 0.95196 0.98499 0.16634 0.00000
H562 H 0.96530 0.96904 0.16313 0.00000
C563 C 0.98355 0.02606 0.18130 0.00000
H564 H 0.02381 0.04536 0.18932 0.00000
O565 O 0.01974 0.17269 0.20828 0.00000
N566 N 0.16519 0.24934 0.21316 0.00000
O567 O 0.97038 0.10997 0.20986 0.00000
C568 C 0.98022 0.14200 0.20782 0.00000
C569 C 0.25629 0.30971 0.21512 0.00000
O570 O 0.06869 0.16511 0.25032 0.00000
N571 N 0.97012 0.04547 0.18726 0.00000
O572 O 0.11695 0.22884 0.25009 0.00000
C573 C 0.09945 0.20383 0.26164 0.00000
C574 C 0.90340 0.96274 0.15505 0.00000
C575 C 0.89001 0.98398 0.16147 0.00000
H576 H 0.85052 0.96717 0.15411 0.00000
C577 C 0.92447 0.02509 0.17666 0.00000
H578 H 0.91435 0.04357 0.18071 0.00000
C579 C 0.07412 0.27624 0.18055 0.00000
H580 H 0.06345 0.27541 0.16020 0.00000
C581 C 0.07366 0.24707 0.18415 0.00000
H582 H 0.05962 0.22011 0.16674 0.00000
C583 C 0.24663 0.30961 0.23731 0.00000
H584 H 0.27621 0.33550 0.25695 0.00000
C585 C 0.20147 0.27830 0.23539 0.00000
H586 H 0.19364 0.27629 0.25360 0.00000
C587 C 0.01953 0.05677 0.27157 0.00000
H588 H 0.04011 0.04852 0.27963 0.00000
C589 C 0.03068 0.07613 0.25470 0.00000
H590 H 0.06267 0.08664 0.24984 0.00000
Ni591 Ni 0.02172 0.10913 0.21405 0.00000
Ni592 Ni 0.09342 0.20417 0.21140 0.00000
C593 C 0.08770 0.30696 0.20187 0.00000
O594 O 0.87841 0.85867 0.71999 0.00000
N595 N 0.96565 0.98193 0.77677 0.00000
O596 O 0.83752 0.79785 0.72435 0.00000
C597 C 0.85167 0.82007 0.71091 0.00000
C598 C 0.02409 0.06552 0.80439 0.00000
C599 C 0.04283 0.04819 0.80098 0.00000
H600 H 0.08334 0.06860 0.80896 0.00000
C601 C 0.01236 0.00659 0.78802 0.00000
H602 H 0.02702 0.99151 0.78653 0.00000
O603 O 0.82353 0.84841 0.75255 0.00000
O604 O 0.86123 0.90771 0.74641 0.00000
H605 H 0.90803 0.77614 0.82398 0.00000
C606 C 0.82465 0.87482 0.74743 0.00000
N607 N 0.87342 0.79037 0.77176 0.00000
C608 C 0.89061 0.79611 0.79593 0.00000
C609 C 0.89586 0.77148 0.80276 0.00000
H610 H 0.90133 0.82325 0.81149 0.00000
H611 H 0.68225 0.68511 0.71964 0.00000
C612 C 0.71040 0.71360 0.73852 0.00000
C613 C 0.75422 0.74648 0.73971 0.00000
H614 H 0.76198 0.74689 0.72144 0.00000
C615 C 0.91106 0.95520 0.68941 0.00000
H616 H 0.88652 0.95864 0.67909 0.00000
C617 C 0.90296 0.93931 0.70802 0.00000
H618 H 0.86982 0.92683 0.71222 0.00000
O619 O 0.93504 0.86376 0.76644 0.00000
N620 N 0.78924 0.77879 0.76127 0.00000
O621 O 0.97729 0.92368 0.76087 0.00000
C622 C 0.97271 0.89520 0.76587 0.00000
C623 C 0.70034 0.71509 0.76050 0.00000
O624 O 0.92317 0.91764 0.79270 0.00000
N625 N 0.93185 0.93740 0.72188 0.00000
O626 O 0.88411 0.85924 0.80004 0.00000
C627 C 0.91111 0.89839 0.80746 0.00000
C628 C 0.94945 0.96718 0.68313 0.00000
C629 C 0.97938 0.96461 0.69792 0.00000
H630 H 0.01311 0.97606 0.69486 0.00000
C631 C 0.96811 0.94828 0.71613 0.00000
H632 H 0.99053 0.94344 0.72725 0.00000
C633 C 0.86844 0.73534 0.75820 0.00000
H634 H 0.85721 0.70918 0.74143 0.00000
C635 C 0.86446 0.76165 0.75344 0.00000
H636 H 0.85287 0.75940 0.73276 0.00000
C637 C 0.73783 0.74973 0.78308 0.00000
H638 H 0.73307 0.75206 0.80219 0.00000
C639 C 0.78037 0.78093 0.78219 0.00000
H640 H 0.81044 0.81074 0.80017 0.00000
C641 C 0.97450 0.03879 0.79247 0.00000
H642 H 0.95676 0.05118 0.79319 0.00000
C643 C 0.94721 0.99762 0.77991 0.00000
H644 H 0.90631 0.97490 0.77149 0.00000
Ni645 Ni 0.92034 0.91730 0.75348 0.00000
Ni646 Ni 0.85974 0.82694 0.76235 0.00000
C647 C 0.88627 0.74068 0.78366 0.00000
O648 O 0.40933 0.81453 0.66675 0.00000
N649 N 0.29549 0.68114 0.62655 0.00000
O650 O 0.46991 0.85245 0.70502 0.00000
C651 C 0.44616 0.84880 0.68429 0.00000
C652 C 0.21679 0.60007 0.59308 0.00000
C653 C 0.21342 0.62124 0.61162 0.00000
H654 H 0.17733 0.60581 0.61293 0.00000
C655 C 0.25363 0.66062 0.62825 0.00000
H656 H 0.25203 0.67742 0.64463 0.00000
O657 O 0.45651 0.78312 0.67453 0.00000
O658 O 0.39853 0.74735 0.63547 0.00000
H659 H 0.45365 0.79782 0.80083 0.00000
C660 C 0.44047 0.76602 0.65058 0.00000
N661 N 0.45909 0.82459 0.74907 0.00000
C662 C 0.44909 0.80227 0.76337 0.00000
C663 C 0.46031 0.81771 0.78895 0.00000
H664 H 0.43010 0.76846 0.75335 0.00000
H665 H 0.63167 0.91748 0.74233 0.00000
C666 C 0.60119 0.88327 0.73886 0.00000
C667 C 0.55493 0.86416 0.72739 0.00000
H668 H 0.54637 0.88141 0.71966 0.00000
C669 C 0.32997 0.76834 0.58226 0.00000
H670 H 0.34223 0.76945 0.56560 0.00000
C671 C 0.34724 0.76350 0.60268 0.00000
H672 H 0.37639 0.76326 0.60405 0.00000
O673 O 0.37799 0.78142 0.70698 0.00000
N674 N 0.51837 0.82587 0.72458 0.00000
O675 O 0.31680 0.74557 0.66924 0.00000
C676 C 0.33620 0.76376 0.69366 0.00000
C677 C 0.61086 0.86071 0.74629 0.00000
O678 O 0.36105 0.71148 0.67344 0.00000
N679 N 0.33194 0.75894 0.62150 0.00000
O680 O 0.41965 0.74518 0.71198 0.00000
C681 C 0.38205 0.71196 0.69317 0.00000
C682 C 0.29730 0.77191 0.58193 0.00000
C683 C 0.28185 0.76730 0.60215 0.00000
H684 H 0.25309 0.76752 0.60244 0.00000
C685 C 0.30136 0.76251 0.62164 0.00000
H686 H 0.29138 0.76142 0.63918 0.00000
C687 C 0.48989 0.88085 0.78485 0.00000
H688 H 0.50846 0.91481 0.79324 0.00000
C689 C 0.47730 0.86248 0.75947 0.00000
H690 H 0.48237 0.88003 0.74611 0.00000
C691 C 0.57160 0.82012 0.74296 0.00000
H692 H 0.57686 0.80049 0.74992 0.00000
C693 C 0.52672 0.80395 0.73130 0.00000
H694 H 0.49410 0.76985 0.72690 0.00000
C695 C 0.26154 0.62228 0.59174 0.00000
H696 H 0.26648 0.60774 0.57609 0.00000
C697 C 0.29951 0.66162 0.60929 0.00000
H698 H 0.33704 0.67926 0.60951 0.00000
Ni699 Ni 0.35606 0.74549 0.65131 0.00000
Ni700 Ni 0.44639 0.79978 0.70953 0.00000
C701 C 0.47993 0.85787 0.80040 0.00000
O702 O 0.28819 0.29537 0.61335 0.00000
N703 N 0.14277 0.20884 0.60862 0.00000
O704 O 0.35699 0.33001 0.64597 0.00000
C705 C 0.33293 0.32030 0.62297 0.00000
C706 C 0.04513 0.15286 0.59522 0.00000
C707 C 0.07373 0.19565 0.60562 0.00000
H708 H 0.05709 0.20876 0.60816 0.00000
C709 C 0.12185 0.22184 0.61277 0.00000
H710 H 0.14611 0.25690 0.62288 0.00000
O711 O 0.28292 0.24146 0.63970 0.00000
O712 O 0.21543 0.20604 0.60578 0.00000
H713 H 0.39457 0.39932 0.76328 0.00000
C714 C 0.24875 0.21023 0.61961 0.00000
N715 N 0.37174 0.36175 0.70052 0.00000
C716 C 0.36628 0.36448 0.72251 0.00000
C717 C 0.39967 0.39946 0.74427 0.00000
H718 H 0.33156 0.33567 0.72278 0.00000
H719 H 0.46377 0.31608 0.68048 0.00000
C720 C 0.43176 0.30252 0.68612 0.00000
C721 C 0.40023 0.30512 0.67562 0.00000
H722 H 0.40385 0.31842 0.65990 0.00000
C723 C 0.17256 0.21450 0.53402 0.00000
H724 H 0.16229 0.18797 0.51810 0.00000
C725 C 0.18935 0.22069 0.55912 0.00000
H726 H 0.19621 0.20115 0.56447 0.00000
O727 O 0.29215 0.33266 0.66330 0.00000
N728 N 0.36477 0.29289 0.68271 0.00000
O729 O 0.22504 0.30096 0.63034 0.00000
C730 C 0.26101 0.33133 0.65094 0.00000
C731 C 0.42456 0.28320 0.70374 0.00000
O732 O 0.21447 0.24264 0.65367 0.00000
N733 N 0.19843 0.24865 0.57818 0.00000
O734 O 0.28025 0.27512 0.68794 0.00000
C735 C 0.23503 0.25028 0.67651 0.00000
C736 C 0.16807 0.24079 0.52798 0.00000
C737 C 0.17822 0.27039 0.54847 0.00000
H738 H 0.17278 0.29150 0.54489 0.00000
C739 C 0.19474 0.27397 0.57291 0.00000
H740 H 0.20621 0.29988 0.59001 0.00000
C741 C 0.44485 0.43177 0.71956 0.00000
H742 H 0.47826 0.45918 0.71751 0.00000
C743 C 0.40936 0.39529 0.69895 0.00000
H744 H 0.41137 0.39276 0.67913 0.00000
C745 C 0.38658 0.27021 0.71083 0.00000
H746 H 0.38008 0.25622 0.72626 0.00000
C747 C 0.35715 0.27431 0.69918 0.00000
H748 H 0.32403 0.26133 0.70355 0.00000
C749 C 0.06807 0.13977 0.59116 0.00000
H750 H 0.04661 0.10523 0.58138 0.00000
C751 C 0.11646 0.16855 0.59899 0.00000
H752 H 0.13611 0.15816 0.59734 0.00000
Ni753 Ni 0.21842 0.25259 0.61716 0.00000
Ni754 Ni 0.32044 0.30347 0.66785 0.00000
C755 C 0.43996 0.43528 0.74309 0.00000
O756 O 0.85538 0.37539 0.71760 0.00000
N757 N 0.70105 0.27697 0.67955 0.00000
O758 O 0.90144 0.42989 0.75470 0.00000
C759 C 0.89562 0.40780 0.73443 0.00000
C760 C 0.60651 0.20822 0.64757 0.00000
C761 C 0.63161 0.24624 0.64471 0.00000
H762 H 0.61392 0.24959 0.62840 0.00000
C763 C 0.67758 0.27952 0.66157 0.00000
H764 H 0.69763 0.31153 0.66053 0.00000
O765 O 0.82107 0.35232 0.75948 0.00000
O766 O 0.77740 0.29729 0.72297 0.00000
H767 H 0.84637 0.52711 0.79579 0.00000
C768 C 0.79996 0.31558 0.74733 0.00000
N769 N 0.87299 0.47395 0.77248 0.00000
C770 C 0.84873 0.48222 0.77877 0.00000
C771 C 0.86802 0.52154 0.78911 0.00000
H772 H 0.80973 0.45450 0.77518 0.00000
H773 H 0.97909 0.46880 0.84388 0.00000
C774 C 0.93997 0.45289 0.83566 0.00000
C775 C 0.91713 0.44041 0.81006 0.00000
H776 H 0.93594 0.44330 0.79643 0.00000
C777 C 0.79659 0.26120 0.65612 0.00000
H778 H 0.79682 0.23637 0.65754 0.00000
C779 C 0.79275 0.27973 0.67520 0.00000
H780 H 0.79290 0.27254 0.69347 0.00000
O781 O 0.82053 0.41751 0.72336 0.00000
N782 N 0.87340 0.42474 0.79975 0.00000
O783 O 0.77684 0.36513 0.68537 0.00000
C784 C 0.79924 0.40213 0.69936 0.00000
C785 C 0.91519 0.44607 0.85166 0.00000
O786 O 0.73922 0.33665 0.72516 0.00000
N787 N 0.78875 0.30622 0.67383 0.00000
O788 O 0.78052 0.38957 0.76257 0.00000
C789 C 0.74137 0.35636 0.74448 0.00000
C790 C 0.80022 0.27281 0.63495 0.00000
C791 C 0.79625 0.30114 0.63399 0.00000
H792 H 0.79620 0.31037 0.61653 0.00000
C793 C 0.79243 0.31781 0.65409 0.00000
H794 H 0.79231 0.34311 0.65436 0.00000
C795 C 0.93920 0.54527 0.78447 0.00000
H796 H 0.97824 0.57108 0.78720 0.00000
C797 C 0.91660 0.50485 0.77435 0.00000
H798 H 0.93549 0.49643 0.76699 0.00000
C799 C 0.86879 0.42916 0.84030 0.00000
H800 H 0.84722 0.42483 0.85247 0.00000
C801 C 0.84926 0.41777 0.81448 0.00000
H802 H 0.81017 0.40137 0.80462 0.00000
C803 C 0.63195 0.20630 0.66685 0.00000
H804 H 0.61454 0.17560 0.66941 0.00000
C805 C 0.67790 0.24143 0.68268 0.00000
H806 H 0.69821 0.24097 0.69963 0.00000
Ni807 Ni 0.77594 0.32976 0.70316 0.00000
Ni808 Ni 0.84216 0.41118 0.75964 0.00000
C809 C 0.91428 0.55476 0.79143 0.00000
O810 O 0.56630 0.16302 0.27234 0.00000
N811 N 0.42857 0.12415 0.25339 0.00000
O812 O 0.62720 0.19920 0.31026 0.00000
C813 C 0.60753 0.17976 0.28595 0.00000
C814 C 0.33753 0.09206 0.23092 0.00000
C815 C 0.37791 0.13169 0.23356 0.00000
H816 H 0.37420 0.15160 0.22571 0.00000
C817 C 0.42203 0.14660 0.24563 0.00000
H818 H 0.45559 0.18005 0.24945 0.00000
O819 O 0.53370 0.13399 0.31344 0.00000
O820 O 0.47326 0.09561 0.27508 0.00000
H821 H 0.68394 0.34496 0.39994 0.00000
C822 C 0.49617 0.09959 0.29631 0.00000
N823 N 0.65159 0.26740 0.35128 0.00000
C824 C 0.64889 0.28901 0.36784 0.00000
C825 C 0.68784 0.32854 0.38483 0.00000
H826 H 0.61166 0.27305 0.36752 0.00000
H827 H 0.68650 0.17822 0.37967 0.00000
C828 C 0.65886 0.18012 0.37936 0.00000
C829 C 0.64057 0.18464 0.35915 0.00000
H830 H 0.65036 0.18382 0.34165 0.00000
C831 C 0.45277 0.06140 0.19534 0.00000
H832 H 0.43276 0.02699 0.18777 0.00000
C833 C 0.46590 0.08150 0.22047 0.00000
H834 H 0.45978 0.06484 0.23447 0.00000
O835 O 0.58693 0.23641 0.30385 0.00000
N836 N 0.61141 0.19008 0.35853 0.00000
O837 O 0.52867 0.20221 0.26509 0.00000
C838 C 0.56686 0.23559 0.28356 0.00000
C839 C 0.64356 0.17786 0.39958 0.00000
O840 O 0.49047 0.16833 0.30346 0.00000
N841 N 0.48582 0.12013 0.22990 0.00000
O842 O 0.54826 0.20473 0.34266 0.00000
C843 C 0.50683 0.18682 0.32727 0.00000
C844 C 0.46398 0.08319 0.17902 0.00000
C845 C 0.48539 0.12416 0.18946 0.00000
H846 H 0.49319 0.14325 0.17688 0.00000
C847 C 0.49700 0.14134 0.21486 0.00000
H848 H 0.51740 0.17571 0.22408 0.00000
C849 C 0.73431 0.32528 0.36576 0.00000
H850 H 0.77002 0.33892 0.36461 0.00000
C851 C 0.69319 0.28590 0.34966 0.00000
H852 H 0.69375 0.26730 0.33383 0.00000
C853 C 0.61240 0.18338 0.39843 0.00000
H854 H 0.60041 0.18425 0.41500 0.00000
C855 C 0.59626 0.18775 0.37733 0.00000
H856 H 0.56827 0.18957 0.37534 0.00000
C857 C 0.34530 0.06894 0.23945 0.00000
H858 H 0.31377 0.03533 0.23661 0.00000
C859 C 0.39093 0.08676 0.25124 0.00000
H860 H 0.39797 0.06917 0.25984 0.00000
Ni861 Ni 0.49936 0.14793 0.26904 0.00000
Ni862 Ni 0.58933 0.20295 0.32750 0.00000
C863 C 0.73232 0.34864 0.38357 0.00000
H864 H 0.73888 0.23094 0.72852 0.00000
H865 H 0.81112 0.32752 0.79547 0.00000
H866 H 0.76114 0.28314 0.81459 0.00000
H867 H 0.70206 0.21940 0.82734 0.00000
H868 H 0.64866 0.15427 0.83070 0.00000
H869 H 0.61441 0.09371 0.75689 0.00000
H870 H 0.70619 0.15670 0.72107 0.00000
H871 H 0.66948 0.11651 0.72627 0.00000
H872 H 0.76057 0.18731 0.76502 0.00000
H873 H 0.72489 0.14277 0.76603 0.00000
H874 H 0.78639 0.15272 0.75465 0.00000
H875 H 0.73641 0.11587 0.73159 0.00000
H876 H 0.77160 0.16007 0.73031 0.00000
H877 H 0.61036 0.11845 0.71575 0.00000
H878 H 0.64438 0.15722 0.70873 0.00000
H879 H 0.60294 0.15708 0.74359 0.00000
H880 H 0.63288 0.19308 0.73346 0.00000
H881 H 0.54639 0.14593 0.70692 0.00000
H882 H 0.57227 0.14537 0.68934 0.00000
H883 H 0.54287 0.10879 0.69892 0.00000
C884 C 0.74396 0.24070 0.74573 0.00000
C885 C 0.77966 0.28318 0.76097 0.00000
C886 C 0.78666 0.29890 0.78607 0.00000
C887 C 0.75774 0.27282 0.79789 0.00000
C888 C 0.68506 0.19453 0.81362 0.00000
C889 C 0.65316 0.15551 0.81534 0.00000
C890 C 0.62765 0.11797 0.79437 0.00000
C891 C 0.63254 0.11853 0.77095 0.00000
C892 C 0.67734 0.16568 0.74546 0.00000
C893 C 0.71610 0.21324 0.75690 0.00000
C894 C 0.72305 0.22972 0.78241 0.00000
C895 C 0.68958 0.19351 0.78944 0.00000
C896 C 0.66550 0.15740 0.76888 0.00000
C897 C 0.69580 0.14660 0.73432 0.00000
C898 C 0.73655 0.15757 0.75467 0.00000
C899 C 0.76007 0.14538 0.74152 0.00000
C900 C 0.63402 0.14872 0.72238 0.00000
C901 C 0.61128 0.16322 0.72899 0.00000
C902 C 0.56328 0.13827 0.70343 0.00000
H903 H 0.69135 0.24597 0.30224 0.00000
H904 H 0.60384 0.13208 0.24649 0.00000
H905 H 0.66390 0.15331 0.23039 0.00000
H906 H 0.74571 0.19096 0.22433 0.00000
H907 H 0.82609 0.23450 0.22849 0.00000
H908 H 0.86835 0.32567 0.29027 0.00000
H909 H 0.78280 0.29630 0.33133 0.00000
H910 H 0.83318 0.32192 0.32963 0.00000
H911 H 0.77106 0.23588 0.31859 0.00000
H912 H 0.82558 0.26635 0.32276 0.00000
H913 H 0.81779 0.25358 0.36161 0.00000
H914 H 0.84835 0.30108 0.36760 0.00000
H915 H 0.79406 0.27109 0.36350 0.00000
H916 H 0.81524 0.34378 0.29894 0.00000
H917 H 0.76549 0.32085 0.30099 0.00000
H918 H 0.77430 0.30690 0.25375 0.00000
H919 H 0.72616 0.28861 0.25693 0.00000
H920 H 0.76261 0.35313 0.24893 0.00000
H921 H 0.75990 0.35918 0.27618 0.00000
H922 H 0.80868 0.37802 0.27403 0.00000
C923 C 0.68688 0.22761 0.28867 0.00000
C924 C 0.64259 0.18659 0.27550 0.00000
C925 C 0.63400 0.15920 0.25456 0.00000
C926 C 0.66965 0.17114 0.24501 0.00000
C927 C 0.77014 0.21737 0.23745 0.00000
C928 C 0.81818 0.24364 0.24018 0.00000
C929 C 0.85496 0.28366 0.26024 0.00000
C930 C 0.84435 0.29875 0.27766 0.00000
C931 C 0.77668 0.28203 0.29294 0.00000
C932 C 0.72430 0.24042 0.28100 0.00000
C933 C 0.71486 0.21237 0.25932 0.00000
C934 C 0.76124 0.23389 0.25606 0.00000
C935 C 0.79653 0.27253 0.27588 0.00000
C936 C 0.80072 0.29455 0.32266 0.00000
C937 C 0.80239 0.26411 0.32820 0.00000
C938 C 0.81707 0.27335 0.35817 0.00000
C939 C 0.78144 0.31803 0.29113 0.00000
C940 C 0.76078 0.31209 0.26438 0.00000
C941 C 0.77439 0.35500 0.26605 0.00000
H942 H 0.82052 0.88575 0.26543 0.00000
H943 H 0.93514 0.90075 0.29100 0.00000
H944 H 0.89335 0.84489 0.30510 0.00000
H945 H 0.82755 0.77610 0.31191 0.00000
H946 H 0.75700 0.71390 0.31109 0.00000
H947 H 0.67809 0.73562 0.27832 0.00000
H948 H 0.72964 0.81655 0.24040 0.00000
H949 H 0.68767 0.77612 0.24353 0.00000
H950 H 0.75806 0.78392 0.23099 0.00000
H951 H 0.70941 0.74250 0.22945 0.00000
H952 H 0.70149 0.74356 0.18676 0.00000
H953 H 0.66539 0.74369 0.19444 0.00000
H954 H 0.71372 0.78521 0.19606 0.00000
H955 H 0.70860 0.81292 0.28623 0.00000
H956 H 0.74933 0.85466 0.28371 0.00000
H957 H 0.76648 0.83169 0.32392 0.00000
H958 H 0.80445 0.87511 0.32186 0.00000
H959 H 0.76599 0.88067 0.34935 0.00000
H960 H 0.75485 0.88957 0.32495 0.00000
H961 H 0.71584 0.84585 0.32609 0.00000
C962 C 0.83396 0.87653 0.27245 0.00000
C963 C 0.88156 0.89739 0.27698 0.00000
C964 C 0.90330 0.88589 0.28849 0.00000
C965 C 0.87865 0.85223 0.29659 0.00000
C966 C 0.79788 0.76772 0.30507 0.00000
C967 C 0.75555 0.73074 0.30442 0.00000
C968 C 0.71070 0.71831 0.29391 0.00000
C969 C 0.70734 0.74313 0.28437 0.00000
C970 C 0.75392 0.81143 0.27423 0.00000
C971 C 0.80701 0.84152 0.27871 0.00000
C972 C 0.82985 0.83048 0.29085 0.00000
C973 C 0.79242 0.79162 0.29459 0.00000
C974 C 0.74909 0.77991 0.28403 0.00000
C975 C 0.72076 0.79357 0.24524 0.00000
C976 C 0.72446 0.76858 0.22718 0.00000
C977 C 0.69876 0.75936 0.19826 0.00000
C978 C 0.74265 0.83317 0.28966 0.00000
C979 C 0.77051 0.85215 0.31772 0.00000
C980 C 0.74966 0.86876 0.33088 0.00000
H981 H 0.37486 0.91660 0.23867 0.00000
H982 H 0.48710 0.93496 0.27837 0.00000
H983 H 0.43816 0.87854 0.29100 0.00000
H984 H 0.36624 0.80877 0.29454 0.00000
H985 H 0.29184 0.74544 0.28955 0.00000
H986 H 0.21975 0.76443 0.24471 0.00000
H987 H 0.28683 0.84629 0.20873 0.00000
H988 H 0.24137 0.80518 0.20949 0.00000
H989 H 0.31935 0.81582 0.20768 0.00000
H990 H 0.26837 0.77360 0.20318 0.00000
H991 H 0.27377 0.77544 0.16204 0.00000
H992 H 0.23342 0.77398 0.16370 0.00000
H993 H 0.28404 0.81627 0.16822 0.00000
H994 H 0.25000 0.84076 0.24866 0.00000
H995 H 0.29396 0.88308 0.24814 0.00000
H996 H 0.29884 0.86031 0.29065 0.00000
H997 H 0.33978 0.90415 0.28996 0.00000
H998 H 0.29064 0.90738 0.30918 0.00000
H999 H 0.28687 0.91626 0.28379 0.00000
H1000 H 0.24514 0.87211 0.28349 0.00000
C1001 C 0.38662 0.90795 0.24822 0.00000
C1002 C 0.43533 0.93000 0.25751 0.00000
C1003 C 0.45435 0.91932 0.27274 0.00000
C1004 C 0.42554 0.88535 0.28007 0.00000
C1005 C 0.33722 0.79963 0.28452 0.00000
C1006 C 0.29263 0.76197 0.28135 0.00000
C1007 C 0.24881 0.74841 0.26602 0.00000
C1008 C 0.24859 0.77272 0.25402 0.00000
C1009 C 0.30140 0.84136 0.24451 0.00000
C1010 C 0.35599 0.87262 0.25362 0.00000
C1011 C 0.37595 0.86242 0.26956 0.00000
C1012 C 0.33508 0.82299 0.27143 0.00000
C1013 C 0.29287 0.81019 0.25621 0.00000
C1014 C 0.27573 0.82342 0.21429 0.00000
C1015 C 0.28515 0.79967 0.20062 0.00000
C1016 C 0.26737 0.79044 0.17071 0.00000
C1017 C 0.28483 0.86172 0.25491 0.00000
C1018 C 0.30526 0.88057 0.28334 0.00000
C1019 C 0.27932 0.89562 0.29071 0.00000
H1020 H 0.14282 0.25865 0.19887 0.00000
H1021 H 0.13495 0.20252 0.13274 0.00000
H1022 H 0.20515 0.26677 0.13472 0.00000
H1023 H 0.28862 0.34425 0.14945 0.00000
H1024 H 0.36205 0.41428 0.17167 0.00000
H1025 H 0.32460 0.42478 0.23140 0.00000
H1026 H 0.21855 0.31887 0.24159 0.00000
H1027 H 0.26727 0.36572 0.25231 0.00000
H1028 H 0.25779 0.30112 0.22531 0.00000
H1029 H 0.30640 0.34783 0.24141 0.00000
H1030 H 0.29511 0.30653 0.26657 0.00000
H1031 H 0.29517 0.33952 0.28068 0.00000
H1032 H 0.24645 0.29308 0.26470 0.00000
H1033 H 0.23250 0.38432 0.22867 0.00000
H1034 H 0.18225 0.33851 0.21855 0.00000
H1035 H 0.22034 0.37878 0.18543 0.00000
H1036 H 0.16801 0.33474 0.17680 0.00000
H1037 H 0.16577 0.38887 0.18346 0.00000
H1038 H 0.14883 0.36676 0.20286 0.00000
H1039 H 0.20127 0.41061 0.21239 0.00000
C1040 C 0.15633 0.26044 0.18683 0.00000
C1041 C 0.13366 0.22519 0.16544 0.00000
C1042 C 0.15133 0.22699 0.14660 0.00000
C1043 C 0.19357 0.26492 0.14773 0.00000
C1044 C 0.29615 0.36017 0.16573 0.00000
C1045 C 0.33976 0.40190 0.17921 0.00000
C1046 C 0.35079 0.42570 0.20395 0.00000
C1047 C 0.31795 0.40860 0.21553 0.00000
C1048 C 0.23352 0.34084 0.21185 0.00000
C1049 C 0.19972 0.29842 0.18971 0.00000
C1050 C 0.21700 0.29999 0.17012 0.00000
C1051 C 0.26413 0.34382 0.17861 0.00000
C1052 C 0.27434 0.36627 0.20278 0.00000
C1053 C 0.24757 0.33858 0.23877 0.00000
C1054 C 0.27440 0.32556 0.24058 0.00000
C1055 C 0.27814 0.31513 0.26558 0.00000
C1056 C 0.20978 0.35737 0.21440 0.00000
C1057 C 0.19392 0.36184 0.19080 0.00000
C1058 C 0.17557 0.38433 0.19813 0.00000
H1059 H 0.57513 0.68150 0.75041 0.00000
H1060 H 0.58924 0.60167 0.75503 0.00000
H1061 H 0.67325 0.65431 0.76725 0.00000
H1062 H 0.76431 0.72565 0.78511 0.00000
H1063 H 0.83839 0.79563 0.80273 0.00000
H1064 H 0.77166 0.83552 0.79088 0.00000
H1065 H 0.62985 0.75900 0.78147 0.00000
H1066 H 0.68227 0.80305 0.79167 0.00000
H1067 H 0.66076 0.74313 0.81230 0.00000
H1068 H 0.70892 0.79060 0.82421 0.00000
H1069 H 0.65907 0.77916 0.84737 0.00000
H1070 H 0.66638 0.80923 0.83374 0.00000
H1071 H 0.61818 0.76201 0.82165 0.00000
H1072 H 0.68548 0.79410 0.75070 0.00000
H1073 H 0.63207 0.75086 0.73909 0.00000
H1074 H 0.70668 0.76055 0.73189 0.00000
H1075 H 0.65161 0.71908 0.71839 0.00000
H1076 H 0.67449 0.75732 0.68924 0.00000
H1077 H 0.63545 0.75340 0.69623 0.00000
H1078 H 0.68981 0.79535 0.71020 0.00000
C1079 C 0.59499 0.67684 0.75464 0.00000
C1080 C 0.57576 0.63714 0.75209 0.00000
C1081 C 0.60381 0.62869 0.75693 0.00000
C1082 C 0.65401 0.65985 0.76466 0.00000
C1083 C 0.76601 0.74748 0.78655 0.00000
C1084 C 0.80986 0.78932 0.79703 0.00000
C1085 C 0.81191 0.82219 0.79917 0.00000
C1086 C 0.77014 0.81392 0.79029 0.00000
C1087 C 0.67529 0.75578 0.76995 0.00000
C1088 C 0.64471 0.70936 0.76367 0.00000
C1089 C 0.67293 0.70021 0.76814 0.00000
C1090 C 0.72425 0.74066 0.77823 0.00000
C1091 C 0.72541 0.77218 0.78037 0.00000
C1092 C 0.66362 0.77405 0.78913 0.00000
C1093 C 0.67440 0.77108 0.81480 0.00000
C1094 C 0.65233 0.78136 0.83098 0.00000
C1095 C 0.66530 0.76428 0.74580 0.00000
C1096 C 0.67436 0.74930 0.72525 0.00000
C1097 C 0.66787 0.76551 0.70294 0.00000
H1098 H 0.27047 0.69862 0.68611 0.00000
H1099 H 0.34002 0.81823 0.72234 0.00000
H1100 H 0.28085 0.79879 0.73883 0.00000
H1101 H 0.21105 0.76030 0.75588 0.00000
H1102 H 0.14842 0.71405 0.76838 0.00000
H1103 H 0.12249 0.61639 0.72465 0.00000
H1104 H 0.22771 0.63762 0.70273 0.00000
H1105 H 0.18486 0.61133 0.71143 0.00000
H1106 H 0.27340 0.69130 0.74516 0.00000
H1107 H 0.23166 0.65876 0.75301 0.00000
H1108 H 0.29293 0.65756 0.76399 0.00000
H1109 H 0.24516 0.61393 0.74309 0.00000
H1110 H 0.28645 0.64603 0.73498 0.00000
H1111 H 0.13324 0.60597 0.67813 0.00000
H1112 H 0.17377 0.62992 0.66758 0.00000
H1113 H 0.12734 0.65494 0.67878 0.00000
H1114 H 0.16430 0.67463 0.66542 0.00000
H1115 H 0.08170 0.62113 0.63192 0.00000
H1116 H 0.10958 0.60799 0.62859 0.00000
H1117 H 0.07314 0.58746 0.64201 0.00000
C1118 C 0.27301 0.71813 0.69722 0.00000
C1119 C 0.31055 0.76064 0.70338 0.00000
C1120 C 0.31414 0.79021 0.71872 0.00000
C1121 C 0.27965 0.77919 0.72906 0.00000
C1122 C 0.19378 0.73197 0.75002 0.00000
C1123 C 0.15642 0.70406 0.75731 0.00000
C1124 C 0.13057 0.66112 0.74830 0.00000
C1125 C 0.14070 0.64490 0.73127 0.00000
C1126 C 0.19712 0.66198 0.70624 0.00000
C1127 C 0.23937 0.70559 0.70814 0.00000
C1128 C 0.24297 0.73604 0.72343 0.00000
C1129 C 0.20345 0.71403 0.73298 0.00000
C1130 C 0.17910 0.67245 0.72420 0.00000
C1131 C 0.21306 0.63949 0.71401 0.00000
C1132 C 0.24794 0.66177 0.74150 0.00000
C1133 C 0.27035 0.64300 0.74637 0.00000
C1134 C 0.15936 0.63327 0.67842 0.00000
C1135 C 0.13966 0.64915 0.66751 0.00000
C1136 C 0.09660 0.61270 0.63965 0.00000
H1137 H 0.03660 0.09169 0.69040 0.00000
H1138 H 0.12488 0.13283 0.76251 0.00000
H1139 H 0.19353 0.18282 0.75477 0.00000
H1140 H 0.25500 0.23719 0.73736 0.00000
H1141 H 0.29426 0.28074 0.71522 0.00000
H1142 H 0.16900 0.21111 0.65386 0.00000
H1143 H 0.04117 0.13475 0.66320 0.00000
H1144 H 0.07397 0.16496 0.65071 0.00000
H1145 H 0.09409 0.19364 0.70368 0.00000
H1146 H 0.11786 0.22179 0.68796 0.00000
H1147 H 0.05651 0.21847 0.69350 0.00000
H1148 H 0.04198 0.19825 0.66391 0.00000
H1149 H 0.01797 0.16980 0.67933 0.00000
H1150 H 0.09076 0.12555 0.63612 0.00000
H1151 H 0.05605 0.09290 0.64683 0.00000
H1152 H 0.15124 0.13021 0.65993 0.00000
H1153 H 0.11292 0.09383 0.66759 0.00000
H1154 H 0.11448 0.06409 0.62791 0.00000
H1155 H 0.06331 0.04768 0.62192 0.00000
H1156 H 0.10018 0.08394 0.61389 0.00000
C1157 C 0.06754 0.11074 0.70320 0.00000
C1158 C 0.07584 0.10891 0.72756 0.00000
C1159 C 0.12127 0.13521 0.74652 0.00000
C1160 C 0.16249 0.16565 0.74237 0.00000
C1161 C 0.23820 0.23248 0.72101 0.00000
C1162 C 0.26108 0.25817 0.70760 0.00000
C1163 C 0.23511 0.25073 0.68280 0.00000
C1164 C 0.18575 0.21678 0.67055 0.00000
C1165 C 0.10786 0.15280 0.67459 0.00000
C1166 C 0.10677 0.14182 0.69851 0.00000
C1167 C 0.15309 0.16807 0.71789 0.00000
C1168 C 0.18753 0.19866 0.70790 0.00000
C1169 C 0.16150 0.19109 0.68390 0.00000
C1170 C 0.07375 0.15989 0.66658 0.00000
C1171 C 0.08831 0.19577 0.68697 0.00000
C1172 C 0.04715 0.19555 0.68028 0.00000
C1173 C 0.08943 0.11722 0.65083 0.00000
C1174 C 0.11722 0.10583 0.65452 0.00000
C1175 C 0.09670 0.07191 0.62671 0.00000
H1176 H 0.40982 0.75137 0.76155 0.00000
H1177 H 0.54192 0.85400 0.77063 0.00000
H1178 H 0.57561 0.82966 0.78740 0.00000
H1179 H 0.59127 0.78401 0.79942 0.00000
H1180 H 0.58664 0.73107 0.80482 0.00000
H1181 H 0.44337 0.65199 0.78551 0.00000
H1182 H 0.36787 0.67346 0.74446 0.00000
H1183 H 0.37263 0.64359 0.75115 0.00000
H1184 H 0.42815 0.69646 0.72716 0.00000
H1185 H 0.42229 0.65947 0.73001 0.00000
H1186 H 0.37120 0.63730 0.68689 0.00000
H1187 H 0.33907 0.61026 0.70085 0.00000
H1188 H 0.34456 0.64702 0.69815 0.00000
H1189 H 0.39342 0.67308 0.79539 0.00000
H1190 H 0.38634 0.70203 0.78965 0.00000
H1191 H 0.47088 0.73291 0.82677 0.00000
H1192 H 0.45927 0.75959 0.82211 0.00000
H1193 H 0.43731 0.73732 0.85758 0.00000
H1194 H 0.39113 0.71843 0.83474 0.00000
H1195 H 0.40107 0.69058 0.83858 0.00000
C1196 C 0.44211 0.76586 0.76587 0.00000
C1197 C 0.47389 0.80494 0.76455 0.00000
C1198 C 0.52223 0.82813 0.77198 0.00000
C1199 C 0.54273 0.81376 0.78158 0.00000
C1200 C 0.56216 0.75778 0.79645 0.00000
C1201 C 0.55883 0.72592 0.79956 0.00000
C1202 C 0.51435 0.68618 0.79491 0.00000
C1203 C 0.47230 0.67768 0.78765 0.00000
C1204 C 0.43304 0.70629 0.77530 0.00000
C1205 C 0.45991 0.74905 0.77381 0.00000
C1206 C 0.50951 0.77333 0.78176 0.00000
C1207 C 0.51799 0.74729 0.78848 0.00000
C1208 C 0.47428 0.70872 0.78360 0.00000
C1209 C 0.38988 0.66997 0.74899 0.00000
C1210 C 0.40585 0.66871 0.72740 0.00000
C1211 C 0.36075 0.63780 0.70069 0.00000
C1212 C 0.41006 0.70062 0.79510 0.00000
C1213 C 0.44524 0.73213 0.82140 0.00000
C1214 C 0.41566 0.71819 0.83998 0.00000
H1215 H 0.37523 0.45234 0.24403 0.00000
H1216 H 0.28551 0.32794 0.22100 0.00000
H1217 H 0.23629 0.32403 0.24109 0.00000
H1218 H 0.19025 0.33709 0.26191 0.00000
H1219 H 0.15980 0.36261 0.27883 0.00000
H1220 H 0.27368 0.47961 0.28697 0.00000
H1221 H 0.35467 0.49737 0.24473 0.00000
H1222 H 0.33090 0.50906 0.25759 0.00000
H1223 H 0.27488 0.43353 0.21538 0.00000
H1224 H 0.25629 0.45259 0.22643 0.00000
H1225 H 0.26779 0.46634 0.18828 0.00000
H1226 H 0.30309 0.50887 0.21208 0.00000
H1227 H 0.32214 0.49027 0.20127 0.00000
H1228 H 0.36732 0.51545 0.29840 0.00000
H1229 H 0.39440 0.50645 0.28700 0.00000
H1230 H 0.33880 0.46125 0.31363 0.00000
H1231 H 0.37125 0.45707 0.30429 0.00000
H1232 H 0.41662 0.50598 0.34985 0.00000
H1233 H 0.44301 0.52954 0.33287 0.00000
H1234 H 0.41113 0.53473 0.34170 0.00000
C1235 C 0.34691 0.42711 0.24281 0.00000
C1236 C 0.33341 0.38970 0.23056 0.00000
C1237 C 0.29306 0.35207 0.22951 0.00000
C1238 C 0.26290 0.34911 0.24098 0.00000
C1239 C 0.20626 0.36506 0.26663 0.00000
C1240 C 0.18854 0.38071 0.27671 0.00000
C1241 C 0.21316 0.42325 0.28375 0.00000
C1242 C 0.25672 0.45137 0.28146 0.00000
C1243 C 0.32100 0.46100 0.26591 0.00000
C1244 C 0.31691 0.42574 0.25320 0.00000
C1245 C 0.27621 0.38721 0.25239 0.00000
C1246 C 0.25044 0.39489 0.26416 0.00000
C1247 C 0.27473 0.43631 0.27063 0.00000
C1248 C 0.32630 0.48593 0.24831 0.00000
C1249 C 0.28346 0.45941 0.22329 0.00000
C1250 C 0.29527 0.48358 0.20436 0.00000
C1251 C 0.36621 0.49370 0.29101 0.00000
C1252 C 0.36795 0.47620 0.31032 0.00000
C1253 C 0.41444 0.51565 0.33635 0.00000
H1254 H 0.88605 0.03226 0.27673 0.00000
H1255 H 0.88103 0.00160 0.20507 0.00000
H1256 H 0.88991 0.05665 0.19944 0.00000
H1257 H 0.91031 0.12662 0.20586 0.00000
H1258 H 0.93444 0.19158 0.22141 0.00000
H1259 H 0.93381 0.18479 0.29108 0.00000
H1260 H 0.94211 0.10636 0.31305 0.00000
H1261 H 0.95409 0.14799 0.31913 0.00000
H1262 H 0.99174 0.13030 0.28864 0.00000
H1263 H 0.00857 0.17381 0.30043 0.00000
H1264 H 0.06468 0.17398 0.32660 0.00000
H1265 H 0.04034 0.17947 0.34327 0.00000
H1266 H 0.02320 0.13592 0.33165 0.00000
H1267 H 0.87285 0.11292 0.30069 0.00000
H1268 H 0.85850 0.07033 0.29553 0.00000
H1269 H 0.82668 0.08778 0.25663 0.00000
H1270 H 0.80934 0.04417 0.25347 0.00000
H1271 H 0.75203 0.04537 0.26377 0.00000
H1272 H 0.77506 0.03928 0.28579 0.00000
H1273 H 0.79356 0.08330 0.28987 0.00000
C1274 C 0.88851 0.03822 0.26194 0.00000
C1275 C 0.88337 0.01275 0.24105 0.00000
C1276 C 0.88445 0.01942 0.21842 0.00000
C1277 C 0.89056 0.05251 0.21492 0.00000
C1278 C 0.91550 0.13847 0.22272 0.00000
C1279 C 0.92992 0.17715 0.23226 0.00000
C1280 C 0.93779 0.19484 0.25794 0.00000
C1281 C 0.93027 0.17376 0.27449 0.00000
C1282 C 0.90775 0.10717 0.28041 0.00000
C1283 C 0.89743 0.07283 0.26012 0.00000
C1284 C 0.89765 0.07893 0.23674 0.00000
C1285 C 0.90923 0.11851 0.24056 0.00000
C1286 C 0.91716 0.13534 0.26569 0.00000
C1287 C 0.95022 0.12772 0.30650 0.00000
C1288 C 0.99671 0.14881 0.30344 0.00000
C1289 C 0.03500 0.16070 0.32872 0.00000
C1290 C 0.86470 0.09007 0.28778 0.00000
C1291 C 0.82068 0.06936 0.26559 0.00000
C1292 C 0.78130 0.05818 0.27747 0.00000
H1293 H 0.14968 0.97590 0.26209 0.00000
H1294 H 0.11265 0.89638 0.29819 0.00000
H1295 H 0.16697 0.89225 0.29109 0.00000
H1296 H 0.23898 0.90616 0.28268 0.00000
H1297 H 0.30770 0.93201 0.27443 0.00000
H1298 H 0.30732 0.00816 0.24595 0.00000
H1299 H 0.23520 0.03921 0.26495 0.00000
H1300 H 0.27822 0.04989 0.25887 0.00000
H1301 H 0.26558 0.03506 0.30384 0.00000
H1302 H 0.31186 0.05420 0.29820 0.00000
H1303 H 0.32510 0.10936 0.32674 0.00000
H1304 H 0.32726 0.11585 0.30070 0.00000
H1305 H 0.28090 0.09676 0.30605 0.00000
H1306 H 0.22718 0.99266 0.21919 0.00000
H1307 H 0.18288 0.98192 0.22346 0.00000
H1308 H 0.19012 0.92363 0.21259 0.00000
H1309 H 0.14443 0.91370 0.21417 0.00000
H1310 H 0.13558 0.89779 0.16868 0.00000
H1311 H 0.13609 0.93301 0.17732 0.00000
H1312 H 0.18248 0.94448 0.17603 0.00000
C1313 C 0.15457 0.96066 0.26849 0.00000
C1314 C 0.12712 0.93640 0.28116 0.00000
C1315 C 0.13172 0.91190 0.28975 0.00000
C1316 C 0.16450 0.90965 0.28607 0.00000
C1317 C 0.25294 0.92658 0.27569 0.00000
C1318 C 0.29389 0.94231 0.27070 0.00000
C1319 C 0.31479 0.97341 0.26015 0.00000
C1320 C 0.29450 0.98879 0.25374 0.00000
C1321 C 0.22646 0.98723 0.25436 0.00000
C1322 C 0.18952 0.96152 0.26565 0.00000
C1323 C 0.19333 0.93582 0.27411 0.00000
C1324 C 0.23409 0.94392 0.26931 0.00000
C1325 C 0.25412 0.97448 0.25928 0.00000
C1326 C 0.25678 0.03505 0.26738 0.00000
C1327 C 0.28573 0.05287 0.29567 0.00000
C1328 C 0.30681 0.09816 0.30857 0.00000
C1329 C 0.20241 0.97559 0.22552 0.00000
C1330 C 0.17200 0.93132 0.20976 0.00000
C1331 C 0.15477 0.92611 0.17988 0.00000
H1332 H 0.55155 0.36627 0.29322 0.00000
H1333 H 0.47013 0.30831 0.21706 0.00000
H1334 H 0.48234 0.26308 0.21214 0.00000
H1335 H 0.49960 0.21653 0.21898 0.00000
H1336 H 0.51844 0.18159 0.23472 0.00000
H1337 H 0.58523 0.26366 0.30804 0.00000
H1338 H 0.55449 0.33399 0.32686 0.00000
H1339 H 0.56721 0.30888 0.33334 0.00000
H1340 H 0.47830 0.26889 0.29524 0.00000
H1341 H 0.49143 0.24671 0.30715 0.00000
H1342 H 0.44466 0.24997 0.32704 0.00000
H1343 H 0.49591 0.27620 0.34820 0.00000
H1344 H 0.48334 0.29874 0.33652 0.00000
H1345 H 0.63575 0.34786 0.32363 0.00000
H1346 H 0.62653 0.37570 0.31842 0.00000
H1347 H 0.63838 0.33598 0.28248 0.00000
H1348 H 0.63450 0.36806 0.27975 0.00000
H1349 H 0.72000 0.40505 0.29856 0.00000
H1350 H 0.70877 0.42283 0.31837 0.00000
H1351 H 0.71230 0.39098 0.32193 0.00000
C1352 C 0.53676 0.34492 0.27753 0.00000
C1353 C 0.50898 0.34019 0.25515 0.00000
C1354 C 0.48853 0.31030 0.23140 0.00000
C1355 C 0.49477 0.28263 0.22822 0.00000
C1356 C 0.51602 0.22539 0.23654 0.00000
C1357 C 0.52745 0.20488 0.24620 0.00000
C1358 C 0.55232 0.21861 0.27294 0.00000
C1359 C 0.56738 0.25383 0.29057 0.00000
C1360 C 0.56702 0.31294 0.29719 0.00000
C1361 C 0.54183 0.31687 0.27579 0.00000
C1362 C 0.52145 0.28690 0.25135 0.00000
C1363 C 0.53134 0.26076 0.25541 0.00000
C1364 C 0.55512 0.27440 0.28152 0.00000
C1365 C 0.54881 0.30945 0.31971 0.00000
C1366 C 0.49651 0.27135 0.31094 0.00000
C1367 C 0.47829 0.27435 0.33282 0.00000
C1368 C 0.62126 0.35173 0.31020 0.00000
C1369 C 0.64531 0.36038 0.29201 0.00000
C1370 C 0.70245 0.39874 0.30951 0.00000
H1371 H 0.66282 0.54828 0.77105 0.00000
H1372 H 0.74427 0.66176 0.76751 0.00000
H1373 H 0.79858 0.65854 0.75911 0.00000
H1374 H 0.84047 0.63464 0.74517 0.00000
H1375 H 0.86117 0.59844 0.73055 0.00000
H1376 H 0.75117 0.49587 0.73896 0.00000
H1377 H 0.63725 0.48080 0.74149 0.00000
H1378 H 0.65893 0.46321 0.73352 0.00000
H1379 H 0.65928 0.51472 0.71143 0.00000
H1380 H 0.67059 0.48846 0.70145 0.00000
H1381 H 0.58954 0.45243 0.67494 0.00000
H1382 H 0.58818 0.42499 0.68921 0.00000
H1383 H 0.57681 0.45099 0.69938 0.00000
H1384 H 0.71398 0.49400 0.77603 0.00000
H1385 H 0.69179 0.51029 0.78540 0.00000
H1386 H 0.79042 0.56279 0.79678 0.00000
H1387 H 0.76651 0.57615 0.80799 0.00000
H1388 H 0.79533 0.55734 0.83909 0.00000
H1389 H 0.73935 0.52708 0.82979 0.00000
H1390 H 0.76140 0.51231 0.81806 0.00000
C1391 C 0.68873 0.56918 0.76779 0.00000
C1392 C 0.69945 0.60571 0.76962 0.00000
C1393 C 0.73879 0.63808 0.76618 0.00000
C1394 C 0.77103 0.63636 0.76072 0.00000
C1395 C 0.82272 0.60714 0.74364 0.00000
C1396 C 0.83458 0.58517 0.73494 0.00000
C1397 C 0.80724 0.54336 0.73265 0.00000
C1398 C 0.76805 0.52287 0.73961 0.00000
C1399 C 0.71255 0.52748 0.75584 0.00000
C1400 C 0.71781 0.56477 0.76096 0.00000
C1401 C 0.75836 0.59834 0.75791 0.00000
C1402 C 0.78174 0.58455 0.75002 0.00000
C1403 C 0.75435 0.54376 0.74769 0.00000
C1404 C 0.66134 0.48632 0.73531 0.00000
C1405 C 0.65112 0.48881 0.70941 0.00000
C1406 C 0.59599 0.45056 0.69147 0.00000
C1407 C 0.71755 0.51786 0.78018 0.00000
C1408 C 0.76395 0.55313 0.80196 0.00000
C1409 C 0.76514 0.53568 0.82454 0.00000
H1410 H 0.27572 0.71553 0.94941 0.00000
H1411 H 0.23388 0.77241 0.92992 0.00000
H1412 H 0.25280 0.80508 0.97350 0.00000
H1413 H 0.28894 0.83918 0.02459 0.00000
H1414 H 0.33016 0.86476 0.06944 0.00000
H1415 H 0.35697 0.79176 0.05951 0.00000
H1416 H 0.35061 0.74552 0.98857 0.00000
H1417 H 0.37296 0.76343 0.01888 0.00000
H1418 H 0.38193 0.81305 0.99156 0.00000
H1419 H 0.41059 0.82926 0.02126 0.00000
H1420 H 0.46112 0.84135 0.99845 0.00000
H1421 H 0.45242 0.81007 0.01127 0.00000
H1422 H 0.42361 0.79347 0.98165 0.00000
H1423 H 0.29842 0.71314 0.02118 0.00000
H1424 H 0.27453 0.69231 0.99090 0.00000
H1425 H 0.24061 0.71630 0.02021 0.00000
H1426 H 0.21518 0.69103 0.99008 0.00000
H1427 H 0.17940 0.64200 0.01218 0.00000
H1428 H 0.20318 0.63330 0.99689 0.00000
H1429 H 0.22992 0.65858 0.02688 0.00000
C1430 C 0.27290 0.73433 0.95446 0.00000
C1431 C 0.25361 0.74211 0.93618 0.00000
C1432 C 0.24673 0.76812 0.94286 0.00000
C1433 C 0.25860 0.78840 0.96877 0.00000
C1434 C 0.30288 0.83030 0.03158 0.00000
C1435 C 0.32757 0.84528 0.05825 0.00000
C1436 C 0.34867 0.83159 0.06861 0.00000
C1437 C 0.34454 0.80181 0.05257 0.00000
C1438 C 0.31297 0.75515 0.00436 0.00000
C1439 C 0.28786 0.75542 0.98050 0.00000
C1440 C 0.27992 0.78138 0.98706 0.00000
C1441 C 0.30047 0.80050 0.01593 0.00000
C1442 C 0.32115 0.78708 0.02557 0.00000
C1443 C 0.35942 0.76576 0.00400 0.00000
C1444 C 0.39667 0.80861 0.00440 0.00000
C1445 C 0.43746 0.81390 0.99834 0.00000
C1446 C 0.28105 0.71184 0.00575 0.00000
C1447 C 0.23510 0.69618 0.00633 0.00000
C1448 C 0.20925 0.65310 0.01106 0.00000
H1449 H 0.82098 0.27275 0.08823 0.00000
H1450 H 0.70114 0.17854 0.09522 0.00000
H1451 H 0.65485 0.15096 0.05071 0.00000
H1452 H 0.62397 0.12988 0.99990 0.00000
H1453 H 0.61482 0.12095 0.95670 0.00000
H1454 H 0.75489 0.22515 0.97872 0.00000
H1455 H 0.85144 0.27117 0.05153 0.00000
H1456 H 0.83745 0.26204 0.02184 0.00000
H1457 H 0.79611 0.19706 0.04021 0.00000
H1458 H 0.79277 0.19267 0.01173 0.00000
H1459 H 0.85289 0.19431 0.03407 0.00000
H1460 H 0.87764 0.23330 0.02642 0.00000
H1461 H 0.88130 0.23817 0.05488 0.00000
H1462 H 0.81155 0.29671 0.02307 0.00000
H1463 H 0.82760 0.30898 0.05307 0.00000
H1464 H 0.73495 0.26848 0.02011 0.00000
H1465 H 0.75508 0.28589 0.05058 0.00000
H1466 H 0.76486 0.33816 0.03542 0.00000
H1467 H 0.81560 0.35686 0.05239 0.00000
H1468 H 0.79718 0.33995 0.02213 0.00000
C1469 C 0.78862 0.24801 0.08048 0.00000
C1470 C 0.76413 0.22700 0.09519 0.00000
C1471 C 0.71579 0.19149 0.08458 0.00000
C1472 C 0.68787 0.17425 0.05801 0.00000
C1473 C 0.64974 0.14829 0.99566 0.00000
C1474 C 0.64485 0.14336 0.96996 0.00000
C1475 C 0.68432 0.17151 0.96364 0.00000
C1476 C 0.72939 0.20586 0.98292 0.00000
C1477 C 0.78168 0.24559 0.03314 0.00000
C1478 C 0.76341 0.23102 0.05386 0.00000
C1479 C 0.71387 0.19511 0.04330 0.00000
C1480 C 0.69677 0.18343 0.01467 0.00000
C1481 C 0.73576 0.21095 0.00896 0.00000
C1482 C 0.82576 0.25103 0.03456 0.00000
C1483 C 0.81339 0.21098 0.02979 0.00000
C1484 C 0.86097 0.22007 0.03701 0.00000
C1485 C 0.80035 0.28873 0.03663 0.00000
C1486 C 0.76372 0.29006 0.03581 0.00000
C1487 C 0.78780 0.33596 0.03651 0.00000
H1488 H 0.52516 0.68052 0.93408 0.00000
H1489 H 0.47580 0.57518 0.94377 0.00000
H1490 H 0.53630 0.61308 0.98585 0.00000
H1491 H 0.60370 0.66984 0.03245 0.00000
H1492 H 0.66124 0.72948 0.07096 0.00000
H1493 H 0.66768 0.80219 0.03518 0.00000
H1494 H 0.55596 0.74841 0.96705 0.00000
H1495 H 0.59675 0.78484 0.99378 0.00000
H1496 H 0.51548 0.70627 0.99068 0.00000
H1497 H 0.55341 0.74729 0.01581 0.00000
H1498 H 0.48294 0.73542 0.99896 0.00000
H1499 H 0.52687 0.77728 0.99795 0.00000
H1500 H 0.48935 0.73666 0.97275 0.00000
H1501 H 0.65620 0.79176 0.98398 0.00000
H1502 H 0.61756 0.75726 0.95636 0.00000
H1503 H 0.67594 0.75306 0.98945 0.00000
H1504 H 0.64040 0.72207 0.96048 0.00000
H1505 H 0.72202 0.77718 0.96229 0.00000
H1506 H 0.68721 0.77933 0.94586 0.00000
H1507 H 0.72194 0.81089 0.97462 0.00000
C1508 C 0.52669 0.66754 0.94477 0.00000
C1509 C 0.49514 0.62429 0.93580 0.00000
C1510 C 0.49785 0.60415 0.95062 0.00000
C1511 C 0.53315 0.62624 0.97589 0.00000
C1512 C 0.61608 0.69594 0.03318 0.00000
C1513 C 0.65033 0.73174 0.05599 0.00000
C1514 C 0.66876 0.77118 0.05686 0.00000
C1515 C 0.65422 0.77594 0.03476 0.00000
C1516 C 0.59683 0.73778 0.98539 0.00000
C1517 C 0.56057 0.69085 0.97015 0.00000
C1518 C 0.56351 0.66998 0.98496 0.00000
C1519 C 0.60161 0.70225 0.01122 0.00000
C1520 C 0.61869 0.74025 0.01170 0.00000
C1521 C 0.57220 0.75475 0.98486 0.00000
C1522 C 0.53665 0.73637 0.99725 0.00000
C1523 C 0.50591 0.74751 0.99112 0.00000
C1524 C 0.63395 0.76216 0.97369 0.00000
C1525 C 0.66130 0.75059 0.97252 0.00000
C1526 C 0.70233 0.78280 0.96283 0.00000
H1527 H 0.22820 0.25682 0.95442 0.00000
H1528 H 0.18807 0.30599 0.91922 0.00000
H1529 H 0.23248 0.36460 0.95784 0.00000
H1530 H 0.29495 0.42559 0.00397 0.00000
H1531 H 0.35676 0.47250 0.04545 0.00000
H1532 H 0.36562 0.38988 0.05306 0.00000
H1533 H 0.31263 0.29425 0.98805 0.00000
H1534 H 0.35021 0.32804 0.01601 0.00000
H1535 H 0.34363 0.35059 0.97340 0.00000
H1536 H 0.38555 0.38061 0.00104 0.00000
H1537 H 0.41092 0.36049 0.97237 0.00000
H1538 H 0.40996 0.34373 0.99449 0.00000
H1539 H 0.36794 0.31344 0.96705 0.00000
H1540 H 0.29062 0.30354 0.03262 0.00000
H1541 H 0.25166 0.26750 0.00548 0.00000
H1542 H 0.24584 0.32152 0.03164 0.00000
H1543 H 0.20545 0.28189 0.00582 0.00000
H1544 H 0.18820 0.26319 0.04302 0.00000
H1545 H 0.19618 0.23688 0.02829 0.00000
H1546 H 0.23750 0.27606 0.05393 0.00000
C1547 C 0.23063 0.27890 0.95510 0.00000
C1548 C 0.20488 0.27733 0.93353 0.00000
C1549 C 0.20576 0.30845 0.93419 0.00000
C1550 C 0.23271 0.34391 0.95692 0.00000
C1551 C 0.30939 0.41892 0.01364 0.00000
C1552 C 0.34626 0.44655 0.03836 0.00000
C1553 C 0.36796 0.43606 0.05281 0.00000
C1554 C 0.35246 0.39725 0.04313 0.00000
C1555 C 0.29437 0.32559 0.00330 0.00000
C1556 C 0.26009 0.31436 0.97770 0.00000
C1557 C 0.26007 0.34564 0.97826 0.00000
C1558 C 0.29545 0.37993 0.00436 0.00000
C1559 C 0.31640 0.36925 0.01798 0.00000
C1560 C 0.33062 0.32246 0.99990 0.00000
C1561 C 0.36270 0.35232 0.98827 0.00000
C1562 C 0.39062 0.34142 0.97969 0.00000
C1563 C 0.26747 0.29523 0.01647 0.00000
C1564 C 0.23136 0.29371 0.02183 0.00000
C1565 C 0.21125 0.26447 0.03847 0.00000
H1566 H 0.85914 0.93608 0.62531 0.00000
H1567 H 0.96463 0.93834 0.63347 0.00000
H1568 H 0.92731 0.89383 0.58970 0.00000
H1569 H 0.87598 0.85177 0.53929 0.00000
H1570 H 0.82404 0.82154 0.49587 0.00000
H1571 H 0.75103 0.84826 0.51632 0.00000
H1572 H 0.81493 0.93986 0.58697 0.00000
H1573 H 0.78163 0.91533 0.55743 0.00000
H1574 H 0.88153 0.96634 0.57467 0.00000
H1575 H 0.84602 0.94727 0.54605 0.00000
H1576 H 0.88720 0.01923 0.56567 0.00000
H1577 H 0.83202 0.99107 0.55870 0.00000
H1578 H 0.86697 0.00988 0.58731 0.00000
H1579 H 0.73474 0.85051 0.56157 0.00000
H1580 H 0.76493 0.87352 0.59149 0.00000
H1581 H 0.75135 0.80860 0.56088 0.00000
H1582 H 0.77652 0.82977 0.59132 0.00000
H1583 H 0.69110 0.76606 0.57818 0.00000
H1584 H 0.70138 0.80492 0.59369 0.00000
H1585 H 0.67621 0.78495 0.56340 0.00000
C1586 C 0.87307 0.92873 0.61788 0.00000
C1587 C 0.91568 0.94109 0.63279 0.00000
C1588 C 0.93603 0.92911 0.62273 0.00000
C1589 C 0.91470 0.90320 0.59658 0.00000
C1590 C 0.85160 0.85136 0.53461 0.00000
C1591 C 0.82042 0.83351 0.50883 0.00000
C1592 C 0.78361 0.83320 0.50197 0.00000
C1593 C 0.77636 0.84984 0.52081 0.00000
C1594 C 0.80764 0.88993 0.57062 0.00000
C1595 C 0.85186 0.90507 0.59156 0.00000
C1596 C 0.87256 0.89244 0.58159 0.00000
C1597 C 0.84337 0.86876 0.55313 0.00000
C1598 C 0.80811 0.86918 0.54687 0.00000
C1599 C 0.81128 0.92661 0.57021 0.00000
C1600 C 0.85256 0.95866 0.56407 0.00000
C1601 C 0.86049 0.99865 0.56948 0.00000
C1602 C 0.76186 0.85929 0.57531 0.00000
C1603 C 0.75198 0.82215 0.57630 0.00000
C1604 C 0.69982 0.79136 0.57807 0.00000
H1605 H 0.20332 0.77423 0.43299 0.00000
H1606 H 0.28011 0.75143 0.41453 0.00000
H1607 H 0.31297 0.76040 0.45736 0.00000
H1608 H 0.32992 0.76510 0.50569 0.00000
H1609 H 0.32918 0.76608 0.54694 0.00000
H1610 H 0.23711 0.78096 0.53647 0.00000
H1611 H 0.15525 0.74861 0.46262 0.00000
H1612 H 0.16259 0.75212 0.49131 0.00000
H1613 H 0.15956 0.69724 0.45699 0.00000
H1614 H 0.15677 0.69750 0.48415 0.00000
H1615 H 0.07718 0.64251 0.45075 0.00000
H1616 H 0.07944 0.67509 0.46803 0.00000
H1617 H 0.08224 0.67519 0.44100 0.00000
H1618 H 0.23221 0.82373 0.50824 0.00000
H1619 H 0.22507 0.82269 0.48001 0.00000
H1620 H 0.31131 0.85450 0.51578 0.00000
H1621 H 0.30350 0.85683 0.48821 0.00000
H1622 H 0.33856 0.92236 0.52086 0.00000
H1623 H 0.28786 0.90024 0.50103 0.00000
H1624 H 0.29380 0.89702 0.52824 0.00000
C1625 C 0.22364 0.77017 0.43780 0.00000
C1626 C 0.23915 0.76152 0.42024 0.00000
C1627 C 0.27102 0.75736 0.42700 0.00000
C1628 C 0.29027 0.76189 0.45232 0.00000
C1629 C 0.31131 0.76777 0.51177 0.00000
C1630 C 0.31047 0.76837 0.53628 0.00000
C1631 C 0.28195 0.77235 0.54525 0.00000
C1632 C 0.25449 0.77686 0.53015 0.00000
C1633 C 0.22564 0.77865 0.48504 0.00000
C1634 C 0.23936 0.77259 0.46273 0.00000
C1635 C 0.27253 0.76897 0.46953 0.00000
C1636 C 0.28185 0.77163 0.49683 0.00000
C1637 C 0.25346 0.77509 0.50506 0.00000
C1638 C 0.16968 0.74596 0.47693 0.00000
C1639 C 0.14774 0.70209 0.46908 0.00000
C1640 C 0.09108 0.67061 0.45591 0.00000
C1641 C 0.24164 0.82124 0.49408 0.00000
C1642 C 0.29383 0.85650 0.50265 0.00000
C1643 C 0.30463 0.89832 0.51440 0.00000
H1644 H 0.07118 0.13455 0.34162 0.00000
H1645 H 0.95971 0.02082 0.33794 0.00000
H1646 H 0.98672 0.04427 0.38347 0.00000
H1647 H 0.02733 0.08873 0.43362 0.00000
H1648 H 0.07097 0.14082 0.47524 0.00000
H1649 H 0.15608 0.23061 0.44946 0.00000
H1650 H 0.10965 0.20757 0.37182 0.00000
H1651 H 0.13692 0.23713 0.40107 0.00000
H1652 H 0.03641 0.16987 0.37891 0.00000
H1653 H 0.06660 0.20635 0.40611 0.00000
H1654 H 0.03108 0.21922 0.37530 0.00000
H1655 H 0.08722 0.25486 0.38536 0.00000
H1656 H 0.05762 0.21871 0.35821 0.00000
H1657 H 0.18478 0.22279 0.40993 0.00000
H1658 H 0.16087 0.19483 0.38058 0.00000
H1659 H 0.16438 0.16616 0.42019 0.00000
H1660 H 0.14590 0.14145 0.39062 0.00000
H1661 H 0.23110 0.17903 0.41256 0.00000
H1662 H 0.22599 0.19562 0.39131 0.00000
H1663 H 0.24459 0.22137 0.42050 0.00000
C1664 C 0.05396 0.11740 0.35003 0.00000
C1665 C 0.01241 0.07533 0.33619 0.00000
C1666 C 0.98736 0.04863 0.34806 0.00000
C1667 C 0.00251 0.06226 0.37515 0.00000
C1668 C 0.05242 0.11680 0.43683 0.00000
C1669 C 0.07870 0.14818 0.46150 0.00000
C1670 C 0.11665 0.19071 0.46609 0.00000
C1671 C 0.12998 0.20277 0.44620 0.00000
C1672 C 0.11071 0.17789 0.39629 0.00000
C1673 C 0.06905 0.13313 0.37677 0.00000
C1674 C 0.04362 0.10540 0.38872 0.00000
C1675 C 0.06678 0.13078 0.41701 0.00000
C1676 C 0.10324 0.17202 0.42099 0.00000
C1677 C 0.10874 0.20894 0.38882 0.00000
C1678 C 0.06460 0.19945 0.38856 0.00000
C1679 C 0.05962 0.22561 0.37557 0.00000
C1680 C 0.15943 0.19432 0.39731 0.00000
C1681 C 0.16822 0.16906 0.40416 0.00000
C1682 C 0.22310 0.19380 0.40748 0.00000
H1683 H 0.80216 0.89829 0.72292 0.00000
H1684 H 0.80448 0.84617 0.77318 0.00000
H1685 H 0.75138 0.84631 0.78659 0.00000
H1686 H 0.68520 0.84627 0.79000 0.00000
H1687 H 0.62517 0.84737 0.78398 0.00000
H1688 H 0.65670 0.89492 0.72895 0.00000
H1689 H 0.72905 0.88210 0.69184 0.00000
H1690 H 0.69055 0.88381 0.69217 0.00000
H1691 H 0.67961 0.81808 0.69878 0.00000
H1692 H 0.63964 0.81907 0.69345 0.00000
H1693 H 0.62658 0.77756 0.65388 0.00000
H1694 H 0.63767 0.81646 0.65065 0.00000
H1695 H 0.67786 0.81591 0.65595 0.00000
H1696 H 0.74661 0.94889 0.72678 0.00000
H1697 H 0.78721 0.95011 0.72633 0.00000
H1698 H 0.77071 0.96120 0.77121 0.00000
H1699 H 0.81412 0.96675 0.77002 0.00000
H1700 H 0.83979 0.03529 0.78217 0.00000
H1701 H 0.84385 0.02459 0.75587 0.00000
H1702 H 0.79996 0.01856 0.75603 0.00000
C1703 C 0.79064 0.88683 0.73479 0.00000
C1704 C 0.80705 0.87148 0.74707 0.00000
C1705 C 0.79261 0.85621 0.76563 0.00000
C1706 C 0.76034 0.85540 0.77351 0.00000
C1707 C 0.67905 0.85540 0.77781 0.00000
C1708 C 0.64339 0.85620 0.77399 0.00000
C1709 C 0.63435 0.87006 0.75535 0.00000
C1710 C 0.66158 0.88442 0.74054 0.00000
C1711 C 0.73020 0.89616 0.72909 0.00000
C1712 C 0.75655 0.88457 0.74074 0.00000
C1713 C 0.74267 0.86954 0.76004 0.00000
C1714 C 0.70529 0.86960 0.76181 0.00000
C1715 C 0.69676 0.88280 0.74339 0.00000
C1716 C 0.70498 0.87415 0.69879 0.00000
C1717 C 0.66706 0.82766 0.68972 0.00000
C1718 C 0.65069 0.80739 0.65959 0.00000
C1719 C 0.76488 0.94296 0.73452 0.00000
C1720 C 0.79227 0.96931 0.76230 0.00000
C1721 C 0.82201 0.01681 0.76430 0.00000
H1722 H 0.40451 0.62678 0.70418 0.00000
H1723 H 0.27964 0.58624 0.65925 0.00000
H1724 H 0.24518 0.51718 0.64210 0.00000
H1725 H 0.22263 0.44605 0.63393 0.00000
H1726 H 0.21735 0.39146 0.63545 0.00000
H1727 H 0.35425 0.47293 0.68797 0.00000
H1728 H 0.41889 0.59137 0.73116 0.00000
H1729 H 0.40991 0.55139 0.72788 0.00000
H1730 H 0.33684 0.54975 0.72650 0.00000
H1731 H 0.33559 0.51480 0.72879 0.00000
H1732 H 0.35563 0.55647 0.77082 0.00000
H1733 H 0.39903 0.56138 0.77130 0.00000
H1734 H 0.40079 0.59648 0.76902 0.00000
H1735 H 0.43026 0.55296 0.69175 0.00000
H1736 H 0.44264 0.59443 0.69502 0.00000
H1737 H 0.37892 0.52457 0.64834 0.00000
H1738 H 0.39711 0.56862 0.65216 0.00000
H1739 H 0.44753 0.56353 0.63577 0.00000
H1740 H 0.47958 0.59986 0.66310 0.00000
H1741 H 0.46240 0.55658 0.66031 0.00000
C1742 C 0.37266 0.60471 0.69262 0.00000
C1743 C 0.34389 0.61159 0.68303 0.00000
C1744 C 0.29743 0.58005 0.66497 0.00000
C1745 C 0.27608 0.53860 0.65489 0.00000
C1746 C 0.24827 0.45110 0.64474 0.00000
C1747 C 0.24564 0.41891 0.64588 0.00000
C1748 C 0.28482 0.42701 0.66243 0.00000
C1749 C 0.32798 0.46761 0.67779 0.00000
C1750 C 0.37429 0.54722 0.69305 0.00000
C1751 C 0.35250 0.56395 0.68445 0.00000
C1752 C 0.30526 0.53207 0.66568 0.00000
C1753 C 0.29285 0.49205 0.66121 0.00000
C1754 C 0.33123 0.50062 0.67766 0.00000
C1755 C 0.39459 0.56114 0.72324 0.00000
C1756 C 0.35636 0.54467 0.73370 0.00000
C1757 C 0.38029 0.56694 0.76421 0.00000
C1758 C 0.41761 0.56439 0.68593 0.00000
C1759 C 0.40573 0.55439 0.65800 0.00000
C1760 C 0.45372 0.57020 0.65387 0.00000
H1761 H 0.49632 0.30850 0.68828 0.00000
H1762 H 0.45614 0.26489 0.74315 0.00000
H1763 H 0.52045 0.26934 0.75691 0.00000
H1764 H 0.60247 0.28875 0.76735 0.00000
H1765 H 0.67888 0.31563 0.77150 0.00000
H1766 H 0.67495 0.35328 0.71232 0.00000
H1767 H 0.58293 0.36908 0.69101 0.00000
H1768 H 0.63187 0.38177 0.69526 0.00000
H1769 H 0.60698 0.39059 0.73712 0.00000
H1770 H 0.65821 0.40981 0.73906 0.00000
H1771 H 0.65670 0.46297 0.74384 0.00000
H1772 H 0.66558 0.45544 0.71881 0.00000
H1773 H 0.61434 0.43610 0.71657 0.00000
H1774 H 0.59395 0.31460 0.66903 0.00000
H1775 H 0.54408 0.30076 0.66279 0.00000
H1776 H 0.56428 0.25785 0.68175 0.00000
H1777 H 0.51348 0.24302 0.67233 0.00000
H1778 H 0.51880 0.20909 0.63659 0.00000
H1779 H 0.51155 0.23695 0.62858 0.00000
H1780 H 0.56283 0.25310 0.63781 0.00000
C1781 C 0.50237 0.30223 0.70234 0.00000
C1782 C 0.47130 0.28656 0.71514 0.00000
C1783 C 0.47781 0.27504 0.73517 0.00000
C1784 C 0.51642 0.27819 0.74390 0.00000
C1785 C 0.61718 0.30190 0.75675 0.00000
C1786 C 0.66269 0.31810 0.75901 0.00000
C1787 C 0.68468 0.33809 0.74281 0.00000
C1788 C 0.66113 0.34144 0.72354 0.00000
C1789 C 0.58395 0.32743 0.70207 0.00000
C1790 C 0.54272 0.30827 0.71113 0.00000
C1791 C 0.54856 0.29575 0.73133 0.00000
C1792 C 0.59496 0.30686 0.73710 0.00000
C1793 C 0.61590 0.32657 0.72132 0.00000
C1794 C 0.60737 0.37164 0.70221 0.00000
C1795 C 0.62947 0.40263 0.72871 0.00000
C1796 C 0.64282 0.44328 0.72680 0.00000
C1797 C 0.56663 0.30129 0.67395 0.00000
C1798 C 0.54335 0.25815 0.66979 0.00000
C1799 C 0.53308 0.23717 0.64016 0.00000
H1800 H 0.82819 0.66249 0.77727 0.00000
H1801 H 0.96476 0.77274 0.80345 0.00000
H1802 H 0.99483 0.74327 0.81491 0.00000
H1803 H 0.00758 0.69300 0.81867 0.00000
H1804 H 0.00113 0.63673 0.81520 0.00000
H1805 H 0.85613 0.55401 0.78355 0.00000
H1806 H 0.79020 0.58827 0.74990 0.00000
H1807 H 0.79311 0.55545 0.75124 0.00000
H1808 H 0.86031 0.62437 0.73982 0.00000
H1809 H 0.85335 0.58526 0.73654 0.00000
H1810 H 0.81445 0.57846 0.69504 0.00000
H1811 H 0.77551 0.54213 0.70226 0.00000
H1812 H 0.78203 0.58091 0.70561 0.00000
H1813 H 0.79931 0.56665 0.79415 0.00000
H1814 H 0.79359 0.59789 0.79344 0.00000
H1815 H 0.87014 0.61899 0.83183 0.00000
H1816 H 0.85924 0.64709 0.83161 0.00000
H1817 H 0.82344 0.60655 0.85824 0.00000
H1818 H 0.78256 0.59416 0.83476 0.00000
H1819 H 0.79198 0.56513 0.83407 0.00000
C1820 C 0.86090 0.67779 0.78387 0.00000
C1821 C 0.89489 0.72044 0.78933 0.00000
C1822 C 0.94353 0.74441 0.80027 0.00000
C1823 C 0.96204 0.72719 0.80679 0.00000
C1824 C 0.97785 0.66550 0.81151 0.00000
C1825 C 0.97344 0.63166 0.80930 0.00000
C1826 C 0.92806 0.59003 0.79834 0.00000
C1827 C 0.88596 0.58132 0.78991 0.00000
C1828 C 0.84835 0.61262 0.78277 0.00000
C1829 C 0.87715 0.65865 0.78854 0.00000
C1830 C 0.92693 0.68359 0.80011 0.00000
C1831 C 0.93376 0.65494 0.80213 0.00000
C1832 C 0.88927 0.61466 0.79116 0.00000
C1833 C 0.81203 0.58448 0.75374 0.00000
C1834 C 0.83670 0.59443 0.73535 0.00000
C1835 C 0.79843 0.57177 0.70675 0.00000
C1836 C 0.81691 0.59593 0.79842 0.00000
C1837 C 0.84477 0.61855 0.82655 0.00000
C1838 C 0.80680 0.59353 0.83976 0.00000
H1839 H 0.33131 0.14692 0.22603 0.00000
H1840 H 0.24004 0.03041 0.22453 0.00000
H1841 H 0.18404 0.03421 0.22832 0.00000
H1842 H 0.13191 0.05244 0.22732 0.00000
H1843 H 0.09739 0.07980 0.22306 0.00000
H1844 H 0.21709 0.18451 0.22178 0.00000
H1845 H 0.31237 0.18340 0.20312 0.00000
H1846 H 0.28511 0.19783 0.20261 0.00000
H1847 H 0.23601 0.11424 0.17620 0.00000
H1848 H 0.21491 0.13414 0.17292 0.00000
H1849 H 0.23798 0.12865 0.13753 0.00000
H1850 H 0.26945 0.17590 0.15362 0.00000
H1851 H 0.29097 0.15651 0.15708 0.00000
H1852 H 0.31119 0.22310 0.24780 0.00000
H1853 H 0.34155 0.21168 0.24964 0.00000
H1854 H 0.27515 0.18422 0.27286 0.00000
H1855 H 0.31065 0.17792 0.27638 0.00000
H1856 H 0.34664 0.24069 0.31248 0.00000
H1857 H 0.37946 0.25349 0.29683 0.00000
H1858 H 0.34474 0.26041 0.29264 0.00000
C1859 C 0.30150 0.12442 0.22561 0.00000
C1860 C 0.28930 0.08754 0.22468 0.00000
C1861 C 0.24657 0.05442 0.22530 0.00000
C1862 C 0.21245 0.05591 0.22710 0.00000
C1863 C 0.14831 0.07825 0.22594 0.00000
C1864 C 0.12820 0.09494 0.22337 0.00000
C1865 C 0.15346 0.13415 0.22124 0.00000
C1866 C 0.19992 0.15807 0.22226 0.00000
C1867 C 0.27032 0.16165 0.22508 0.00000
C1868 C 0.26794 0.12674 0.22589 0.00000
C1869 C 0.22474 0.09296 0.22696 0.00000
C1870 C 0.19555 0.10352 0.22636 0.00000
C1871 C 0.22057 0.14154 0.22405 0.00000
C1872 C 0.28186 0.17441 0.20170 0.00000
C1873 C 0.24384 0.13947 0.17611 0.00000
C1874 C 0.26238 0.15127 0.15390 0.00000
C1875 C 0.31104 0.20182 0.24915 0.00000
C1876 C 0.30655 0.19625 0.27344 0.00000
C1877 C 0.34866 0.24244 0.29618 0.00000
H1878 H 0.65793 0.34889 0.28217 0.00000
H1879 H 0.52286 0.27713 0.27856 0.00000
H1880 H 0.52494 0.33092 0.27977 0.00000
H1881 H 0.54363 0.39739 0.27624 0.00000
H1882 H 0.57342 0.45904 0.27015 0.00000
H1883 H 0.69630 0.49054 0.27247 0.00000
H1884 H 0.69924 0.39981 0.25842 0.00000
H1885 H 0.71455 0.44078 0.25651 0.00000
H1886 H 0.61913 0.36307 0.22991 0.00000
H1887 H 0.64094 0.40444 0.22548 0.00000
H1888 H 0.63681 0.36067 0.19204 0.00000
H1889 H 0.69084 0.40204 0.20836 0.00000
H1890 H 0.66961 0.36105 0.21298 0.00000
H1891 H 0.74255 0.47314 0.30135 0.00000
H1892 H 0.73071 0.43402 0.30464 0.00000
H1893 H 0.69641 0.46647 0.32484 0.00000
H1894 H 0.69049 0.43036 0.32992 0.00000
H1895 H 0.76156 0.49745 0.36573 0.00000
H1896 H 0.77778 0.47838 0.35168 0.00000
H1897 H 0.78446 0.51431 0.34598 0.00000
C1898 C 0.63140 0.34521 0.28082 0.00000
C1899 C 0.58928 0.30824 0.27995 0.00000
C1900 C 0.55022 0.30248 0.27922 0.00000
C1901 C 0.55057 0.33395 0.27947 0.00000
C1902 C 0.57347 0.41567 0.27520 0.00000
C1903 C 0.59167 0.45248 0.27156 0.00000
C1904 C 0.63701 0.47991 0.26996 0.00000
C1905 C 0.66576 0.47168 0.27261 0.00000
C1906 C 0.67234 0.41840 0.27836 0.00000
C1907 C 0.63275 0.37652 0.27959 0.00000
C1908 C 0.59292 0.37054 0.27929 0.00000
C1909 C 0.60379 0.40819 0.27727 0.00000
C1910 C 0.64778 0.43422 0.27550 0.00000
C1911 C 0.68799 0.41337 0.25585 0.00000
C1912 C 0.64794 0.38844 0.22977 0.00000
C1913 C 0.66273 0.37689 0.20871 0.00000
C1914 C 0.71845 0.44695 0.30299 0.00000
C1915 C 0.71115 0.45560 0.32658 0.00000
C1916 C 0.76417 0.48996 0.34988 0.00000
H1917 H 0.35719 0.66205 0.24334 0.00000
H1918 H 0.35900 0.69950 0.31291 0.00000
H1919 H 0.42168 0.70484 0.33407 0.00000
H1920 H 0.49668 0.71342 0.34743 0.00000
H1921 H 0.56274 0.72142 0.35012 0.00000
H1922 H 0.52123 0.68389 0.27254 0.00000
H1923 H 0.42967 0.68979 0.23008 0.00000
H1924 H 0.47315 0.69352 0.23555 0.00000
H1925 H 0.47776 0.75001 0.26942 0.00000
H1926 H 0.52148 0.75529 0.26982 0.00000
H1927 H 0.52110 0.79749 0.24904 0.00000
H1928 H 0.51336 0.76334 0.22897 0.00000
H1929 H 0.46945 0.75766 0.22833 0.00000
H1930 H 0.42746 0.62610 0.23573 0.00000
H1931 H 0.38201 0.61960 0.22868 0.00000
H1932 H 0.41251 0.60658 0.27104 0.00000
H1933 H 0.36433 0.59612 0.26116 0.00000
H1934 H 0.34797 0.53280 0.24244 0.00000
H1935 H 0.33579 0.54476 0.22010 0.00000
H1936 H 0.38421 0.55584 0.22924 0.00000
C1937 C 0.37127 0.67181 0.26126 0.00000
C1938 C 0.35358 0.68103 0.27689 0.00000
C1939 C 0.37196 0.69356 0.30332 0.00000
C1940 C 0.40986 0.69760 0.31627 0.00000
C1941 C 0.50201 0.70808 0.33277 0.00000
C1942 C 0.54122 0.71274 0.33407 0.00000
C1943 C 0.54896 0.70462 0.31165 0.00000
C1944 C 0.51699 0.69064 0.28733 0.00000
C1945 C 0.43902 0.67283 0.26110 0.00000
C1946 C 0.41057 0.67759 0.27315 0.00000
C1947 C 0.42852 0.68973 0.30014 0.00000
C1948 C 0.47086 0.69453 0.30750 0.00000
C1949 C 0.47798 0.68687 0.28547 0.00000
C1950 C 0.45716 0.69891 0.24367 0.00000
C1951 C 0.49107 0.74475 0.25864 0.00000
C1952 C 0.49957 0.76812 0.23936 0.00000
C1953 C 0.40795 0.62764 0.24292 0.00000
C1954 C 0.38739 0.59791 0.25585 0.00000
C1955 C 0.36115 0.55325 0.23475 0.00000
H1956 H 0.02340 0.28411 0.18264 0.00000
H1957 H 0.16607 0.35833 0.21746 0.00000
H1958 H 0.18091 0.41828 0.21825 0.00000
H1959 H 0.17553 0.47396 0.21879 0.00000
H1960 H 0.15301 0.51131 0.21816 0.00000
H1961 H 0.01212 0.40464 0.18581 0.00000
H1962 H 0.97018 0.29694 0.19180 0.00000
H1963 H 0.96236 0.32683 0.19095 0.00000
H1964 H 0.03700 0.34972 0.23243 0.00000
H1965 H 0.01937 0.37270 0.23179 0.00000
H1966 H 0.98619 0.32922 0.25609 0.00000
H1967 H 0.94406 0.31310 0.23154 0.00000
H1968 H 0.96123 0.28988 0.23190 0.00000
H1969 H 0.97092 0.32840 0.15145 0.00000
H1970 H 0.97603 0.29651 0.15045 0.00000
H1971 H 0.04352 0.37260 0.14558 0.00000
H1972 H 0.04354 0.33717 0.14182 0.00000
H1973 H 0.00268 0.32961 0.09933 0.00000
H1974 H 0.96627 0.28964 0.10484 0.00000
H1975 H 0.96479 0.32402 0.10886 0.00000
C1976 C 0.05414 0.31084 0.19040 0.00000
C1977 C 0.09434 0.31701 0.20046 0.00000
C1978 C 0.14043 0.35585 0.21091 0.00000
C1979 C 0.14985 0.39197 0.21194 0.00000
C1980 C 0.14338 0.46051 0.21257 0.00000
C1981 C 0.12942 0.48234 0.21209 0.00000
C1982 C 0.08046 0.46152 0.20265 0.00000
C1983 C 0.04428 0.41830 0.19286 0.00000
C1984 C 0.02404 0.34833 0.18464 0.00000
C1985 C 0.06116 0.34570 0.19226 0.00000
C1986 C 0.10846 0.38515 0.20259 0.00000
C1987 C 0.10505 0.41637 0.20283 0.00000
C1988 C 0.05721 0.39552 0.19381 0.00000
C1989 C 0.98637 0.32598 0.19721 0.00000
C1990 C 0.00897 0.34564 0.22610 0.00000
C1991 C 0.97144 0.31661 0.23754 0.00000
C1992 C 0.99397 0.32592 0.15540 0.00000
C1993 C 0.02320 0.34267 0.14000 0.00000
C1994 C 0.98536 0.31907 0.11021 0.00000
H1995 H 0.79767 0.22586 0.56830 0.00000
H1996 H 0.74536 0.27203 0.59273 0.00000
H1997 H 0.71438 0.26713 0.55089 0.00000
H1998 H 0.67959 0.24692 0.50042 0.00000
H1999 H 0.65163 0.21912 0.45510 0.00000
H2000 H 0.71926 0.17940 0.45936 0.00000
H2001 H 0.75786 0.16426 0.52550 0.00000
H2002 H 0.73940 0.15102 0.49539 0.00000
H2003 H 0.68348 0.14422 0.52237 0.00000
H2004 H 0.66544 0.12435 0.49221 0.00000
H2005 H 0.64016 0.07159 0.50973 0.00000
H2006 H 0.67541 0.07800 0.49718 0.00000
H2007 H 0.69389 0.09797 0.52727 0.00000
H2008 H 0.80543 0.21754 0.49806 0.00000
H2009 H 0.82715 0.23186 0.52817 0.00000
H2010 H 0.81339 0.27504 0.50433 0.00000
H2011 H 0.83995 0.29024 0.53427 0.00000
H2012 H 0.89981 0.32259 0.51469 0.00000
H2013 H 0.90192 0.29464 0.52673 0.00000
H2014 H 0.87507 0.27811 0.49680 0.00000
C2015 C 0.77979 0.23255 0.56447 0.00000
C2016 C 0.77316 0.24913 0.58386 0.00000
C2017 C 0.74898 0.26127 0.57912 0.00000
C2018 C 0.72956 0.25788 0.55422 0.00000
C2019 C 0.68685 0.23318 0.49219 0.00000
C2020 C 0.67042 0.21643 0.46522 0.00000
C2021 C 0.68162 0.19555 0.45297 0.00000
C2022 C 0.71053 0.19184 0.46744 0.00000
C2023 C 0.75758 0.20617 0.51428 0.00000
C2024 C 0.75897 0.22624 0.53921 0.00000
C2025 C 0.73502 0.23940 0.53467 0.00000
C2026 C 0.71549 0.22784 0.50614 0.00000
C2027 C 0.72640 0.20727 0.49462 0.00000
C2028 C 0.73766 0.16176 0.51083 0.00000
C2029 C 0.68686 0.13155 0.50869 0.00000
C2030 C 0.67268 0.09077 0.51095 0.00000
C2031 C 0.80805 0.23141 0.51422 0.00000
C2032 C 0.83303 0.27460 0.51725 0.00000
C2033 C 0.88253 0.29453 0.51348 0.00000
H2034 H 0.08071 0.89078 0.70089 0.00000
H2035 H 0.01477 0.89308 0.74580 0.00000
H2036 H 0.99856 0.83719 0.75532 0.00000
H2037 H 0.99990 0.78141 0.76337 0.00000
H2038 H 0.01398 0.73903 0.76730 0.00000
H2039 H 0.08545 0.77294 0.72004 0.00000
H2040 H 0.14031 0.88104 0.70881 0.00000
H2041 H 0.14288 0.84855 0.71200 0.00000
H2042 H 0.15013 0.89877 0.75326 0.00000
H2043 H 0.16191 0.87164 0.75534 0.00000
H2044 H 0.23571 0.94338 0.76907 0.00000
H2045 H 0.22993 0.91661 0.74437 0.00000
H2046 H 0.21807 0.94350 0.74199 0.00000
H2047 H 0.06696 0.79236 0.67855 0.00000
H2048 H 0.06362 0.82369 0.67341 0.00000
H2049 H 0.99190 0.75352 0.68203 0.00000
H2050 H 0.98836 0.78351 0.67386 0.00000
H2051 H 0.94962 0.72288 0.63497 0.00000
H2052 H 0.99323 0.76378 0.63295 0.00000
H2053 H 0.99854 0.73494 0.64115 0.00000
C2054 C 0.06603 0.88093 0.71228 0.00000
C2055 C 0.04913 0.89663 0.72309 0.00000
C2056 C 0.02519 0.88142 0.73899 0.00000
C2057 C 0.01598 0.84862 0.74522 0.00000
C2058 C 0.01669 0.77993 0.75510 0.00000
C2059 C 0.02576 0.75487 0.75728 0.00000
C2060 C 0.05234 0.75300 0.74467 0.00000
C2061 C 0.06946 0.77539 0.72905 0.00000
C2062 C 0.07817 0.82968 0.71158 0.00000
C2063 C 0.06039 0.85012 0.71897 0.00000
C2064 C 0.03516 0.83434 0.73488 0.00000
C2065 C 0.03580 0.80291 0.73934 0.00000
C2066 C 0.06216 0.80189 0.72711 0.00000
C2067 C 0.13361 0.86281 0.71804 0.00000
C2068 C 0.16309 0.88858 0.74634 0.00000
C2069 C 0.21700 0.92679 0.75090 0.00000
C2070 C 0.05463 0.80477 0.68235 0.00000
C2071 C 0.00185 0.77161 0.67240 0.00000
C2072 C 0.98397 0.74563 0.64228 0.00000
H2073 H 0.71854 0.03258 0.74849 0.00000
H2074 H 0.75625 0.06161 0.82511 0.00000
H2075 H 0.82415 0.07140 0.82960 0.00000
H2076 H 0.89833 0.08620 0.82401 0.00000
H2077 H 0.95842 0.10043 0.81044 0.00000
H2078 H 0.88047 0.06780 0.73706 0.00000
H2079 H 0.77332 0.06726 0.72302 0.00000
H2080 H 0.81515 0.07488 0.71725 0.00000
H2081 H 0.83307 0.12504 0.76373 0.00000
H2082 H 0.87205 0.13457 0.75341 0.00000
H2083 H 0.85564 0.17564 0.74473 0.00000
H2084 H 0.84059 0.14475 0.71839 0.00000
H2085 H 0.80133 0.13485 0.72842 0.00000
H2086 H 0.78088 0.00721 0.71209 0.00000
H2087 H 0.73666 0.99694 0.71615 0.00000
H2088 H 0.78959 0.98437 0.74510 0.00000
H2089 H 0.74169 0.97037 0.74612 0.00000
H2090 H 0.72256 0.91128 0.71569 0.00000
H2091 H 0.69765 0.92307 0.70070 0.00000
H2092 H 0.74527 0.93773 0.69906 0.00000
C2093 C 0.74047 0.04161 0.76449 0.00000
C2094 C 0.73261 0.04696 0.78692 0.00000
C2095 C 0.76300 0.05828 0.81069 0.00000
C2096 C 0.80407 0.06495 0.81377 0.00000
C2097 C 0.89526 0.08306 0.80696 0.00000
C2098 C 0.93077 0.09146 0.79860 0.00000
C2099 C 0.92571 0.08666 0.77266 0.00000
C2100 C 0.88444 0.07235 0.75431 0.00000
C2101 C 0.80115 0.04977 0.74584 0.00000
C2102 C 0.78201 0.05013 0.76662 0.00000
C2103 C 0.81238 0.06100 0.79093 0.00000
C2104 C 0.85415 0.06933 0.78758 0.00000
C2105 C 0.84871 0.06486 0.76231 0.00000
C2106 C 0.80490 0.07749 0.73095 0.00000
C2107 C 0.83938 0.12249 0.74824 0.00000
C2108 C 0.83367 0.14683 0.73351 0.00000
C2109 C 0.76732 0.00595 0.72484 0.00000
C2110 C 0.75919 0.97496 0.73508 0.00000
C2111 C 0.72797 0.93240 0.71007 0.00000
loop_
_geom_bond_atom_site_label_1
_geom_bond_atom_site_label_2
_geom_bond_distance
_geom_bond_site_symmetry_2
_ccdc_geom_bond_type
O0 C3 1.247 . A
O0 Ni51 2.214 1_545 S
N1 C7 1.311 . A
N1 C49 1.311 . A
N1 Ni51 2.145 . S
O2 C3 1.267 . A
O2 Ni52 2.011 . S
C4 C5 1.389 . A
C4 C47 1.389 . A
C5 H6 1.140 . S
C5 C7 1.352 . A
C7 H8 1.140 . S
O9 C12 1.247 . A
O9 Ni52 2.214 . S
O10 C12 1.267 1_565 A
O10 Ni51 2.011 . S
H11 C15 1.140 . S
N13 C14 1.311 . A
N13 C41 1.311 . A
N13 Ni52 2.145 . S
C14 C15 1.352 . A
C14 H16 1.140 . S
C15 C53 1.389 . A
H17 C18 1.140 . S
C18 C19 1.352 . A
C18 C29 1.389 . A
C19 H20 1.140 . S
C19 N26 1.311 . A
C21 H22 1.140 . S
C21 C23 1.352 . A
C21 C34 1.389 . A
C23 H24 1.140 . S
C23 N31 1.311 . A
O25 C28 1.246 . A
O25 Ni52 2.214 . S
N26 C45 1.311 . A
N26 Ni52 2.145 . S
O27 C28 1.269 1_565 A
O27 Ni51 2.011 . S
C29 C43 1.389 . A
O30 C33 1.247 1_565 A
O30 Ni51 2.214 . S
N31 C37 1.311 . A
N31 Ni51 2.145 . S
O32 C33 1.267 . A
O32 Ni52 2.011 . S
C34 C35 1.389 . A
C35 H36 1.140 . S
C35 C37 1.352 . A
C37 H38 1.140 . S
C39 H40 1.140 . S
C39 C41 1.352 . A
C39 C53 1.389 . A
C41 H42 1.140 . S
C43 H44 1.140 . S
C43 C45 1.352 . A
C45 H46 1.140 . S
C47 H48 1.140 . S
C47 C49 1.352 . A
C49 H50 1.140 . S
O54 C57 1.247 . A
O54 Ni105 2.214 . S
N55 C61 1.311 . A
N55 C103 1.311 . A
N55 Ni105 2.145 . S
O56 C57 1.267 1_455 A
O56 Ni106 2.011 . S
C58 C59 1.389 . A
C58 C101 1.389 . A
C59 H60 1.140 . S
C59 C61 1.352 . A
C61 H62 1.140 . S
O63 C66 1.247 1_455 A
O63 Ni106 2.214 . S
O64 C66 1.267 . A
O64 Ni105 2.011 . S
H65 C69 1.140 . S
N67 C68 1.311 . A
N67 C95 1.311 . A
N67 Ni106 2.145 . S
C68 C69 1.352 . A
C68 H70 1.140 . S
C69 C107 1.389 . A
H71 C72 1.140 . S
C72 C73 1.352 . A
C72 C83 1.389 . A
C73 H74 1.140 . S
C73 N80 1.311 . A
C75 H76 1.140 . S
C75 C77 1.352 . A
C75 C88 1.389 . A
C77 H78 1.140 . S
C77 N85 1.311 . A
O79 C82 1.247 . A
O79 Ni106 2.214 1_655 S
N80 C99 1.311 . A
N80 Ni106 2.145 . S
O81 C82 1.267 . A
O81 Ni105 2.011 . S
C83 C97 1.389 . A
O84 C87 1.247 . A
O84 Ni105 2.214 . S
N85 C91 1.311 . A
N85 Ni105 2.145 . S
O86 C87 1.267 . A
O86 Ni106 2.011 1_655 S
C88 C89 1.389 . A
C89 H90 1.140 . S
C89 C91 1.352 . A
C91 H92 1.140 . S
C93 H94 1.140 . S
C93 C95 1.352 . A
C93 C107 1.389 . A
C95 H96 1.140 . S
C97 H98 1.140 . S
C97 C99 1.352 . A
C99 H100 1.140 . S
C101 H102 1.140 . S
C101 C103 1.352 . A
C103 H104 1.140 . S
O108 C111 1.247 . A
O108 Ni159 2.214 . S
N109 C115 1.311 . A
N109 C157 1.311 . A
N109 Ni159 2.145 . S
O110 C111 1.267 . A
O110 Ni160 2.011 . S
C112 C113 1.389 . A
C112 C155 1.389 . A
C113 H114 1.140 . S
C113 C115 1.352 . A
C115 H116 1.140 . S
O117 C120 1.247 . A
O117 Ni160 2.214 . S
O118 C120 1.267 . A
O118 Ni159 2.011 . S
H119 C123 1.140 . S
N121 C122 1.311 1_565 A
N121 C149 1.311 1_665 A
N121 Ni160 2.145 . S
C122 C123 1.352 1_655 A
C122 H124 1.140 1_545 S
C123 C161 1.389 . A
H125 C126 1.140 . S
C126 C127 1.352 . A
C126 C137 1.389 . A
C127 H128 1.140 . S
C127 N134 1.311 1_455 A
C129 H130 1.140 . S
C129 C131 1.352 . A
C129 C142 1.389 . A
C131 H132 1.140 . S
C131 N139 1.311 . A
O133 C136 1.247 . A
O133 Ni160 2.214 . S
N134 C153 1.311 . A
N134 Ni160 2.145 . S
O135 C136 1.267 . A
O135 Ni159 2.011 . S
C137 C151 1.389 . A
O138 C141 1.247 . A
O138 Ni159 2.214 . S
N139 C145 1.311 . A
N139 Ni159 2.145 . S
O140 C141 1.267 . A
O140 Ni160 2.011 . S
C142 C143 1.389 . A
C143 H144 1.140 . S
C143 C145 1.352 . A
C145 H146 1.140 . S
C147 H148 1.140 . S
C147 C149 1.352 . A
C147 C161 1.389 . A
C149 H150 1.140 . S
C151 H152 1.140 . S
C151 C153 1.352 1_455 A
C153 H154 1.140 . S
C155 H156 1.140 . S
C155 C157 1.352 . A
C157 H158 1.140 . S
O162 C165 1.247 1_565 A
O162 Ni213 2.214 . S
N163 C169 1.311 . A
N163 C211 1.311 . A
N163 Ni213 2.145 . S
O164 C165 1.267 . A
O164 Ni214 2.011 . S
C166 C167 1.389 . A
C166 C209 1.389 . A
C167 H168 1.140 . S
C167 C169 1.352 . A
C169 H170 1.140 . S
O171 C174 1.247 . A
O171 Ni214 2.214 1_565 S
O172 C174 1.267 . A
O172 Ni213 2.011 . S
H173 C177 1.140 . S
N175 C176 1.311 . A
N175 C203 1.311 . A
N175 Ni214 2.145 . S
C176 C177 1.352 . A
C176 H178 1.140 . S
C177 C215 1.389 . A
H179 C180 1.140 . S
C180 C181 1.352 . A
C180 C191 1.389 . A
C181 H182 1.140 . S
C181 N188 1.311 . A
C183 H184 1.140 . S
C183 C185 1.352 . A
C183 C196 1.389 . A
C185 H186 1.140 . S
C185 N193 1.311 . A
O187 C190 1.247 . A
O187 Ni214 2.214 . S
N188 C207 1.311 . A
N188 Ni214 2.145 . S
O189 C190 1.267 1_565 A
O189 Ni213 2.011 . S
C191 C205 1.389 . A
O192 C195 1.247 . A
O192 Ni213 2.214 . S
N193 C199 1.311 . A
N193 Ni213 2.145 . S
O194 C195 1.267 1_545 A
O194 Ni214 2.011 . S
C196 C197 1.389 . A
C197 H198 1.140 . S
C197 C199 1.352 . A
C199 H200 1.140 . S
C201 H202 1.140 . S
C201 C203 1.352 . A
C201 C215 1.389 . A
C203 H204 1.140 . S
C205 H206 1.140 . S
C205 C207 1.352 . A
C207 H208 1.140 . S
C209 H210 1.140 . S
C209 C211 1.352 . A
C211 H212 1.140 . S
O216 C219 1.247 . A
O216 Ni267 2.214 . S
N217 C223 1.311 . A
N217 C265 1.311 . A
N217 Ni267 2.145 . S
O218 C219 1.267 . A
O218 Ni268 2.011 . S
C220 C221 1.389 . A
C220 C263 1.389 . A
C221 H222 1.140 . S
C221 C223 1.352 . A
C223 H224 1.140 . S
O225 C228 1.247 . A
O225 Ni268 2.214 . S
O226 C228 1.267 . A
O226 Ni267 2.011 . S
H227 C231 1.140 . S
N229 C230 1.311 . A
N229 C257 1.311 . A
N229 Ni268 2.145 . S
C230 C231 1.352 . A
C230 H232 1.140 . S
C231 C269 1.389 . A
H233 C234 1.140 . S
C234 C235 1.352 . A
C234 C245 1.389 . A
C235 H236 1.140 . S
C235 N242 1.311 . A
C237 H238 1.140 . S
C237 C239 1.352 . A
C237 C250 1.389 . A
C239 H240 1.140 . S
C239 N247 1.311 . A
O241 C244 1.247 . A
O241 Ni268 2.214 . S
N242 C261 1.311 . A
N242 Ni268 2.145 . S
O243 C244 1.267 . A
O243 Ni267 2.011 . S
C245 C259 1.389 . A
O246 C249 1.247 . A
O246 Ni267 2.214 . S
N247 C253 1.311 . A
N247 Ni267 2.145 . S
O248 C249 1.267 . A
O248 Ni268 2.011 . S
C250 C251 1.389 . A
C251 H252 1.140 . S
C251 C253 1.352 . A
C253 H254 1.140 . S
C255 H256 1.140 . S
C255 C257 1.352 . A
C255 C269 1.389 . A
C257 H258 1.140 . S
C259 H260 1.140 . S
C259 C261 1.352 . A
C261 H262 1.140 . S
C263 H264 1.140 . S
C263 C265 1.352 . A
C265 H266 1.140 . S
O270 C273 1.247 . A
O270 Ni321 2.214 . S
N271 C277 1.311 . A
N271 C319 1.311 . A
N271 Ni321 2.145 . S
O272 C273 1.267 . A
O272 Ni322 2.011 . S
C274 C275 1.389 . A
C274 C317 1.389 . A
C275 H276 1.140 . S
C275 C277 1.352 . A
C277 H278 1.140 . S
O279 C282 1.247 . A
O279 Ni322 2.214 . S
O280 C282 1.267 . A
O280 Ni321 2.011 . S
H281 C285 1.140 . S
N283 C284 1.311 . A
N283 C311 1.311 . A
N283 Ni322 2.145 . S
C284 C285 1.352 . A
C284 H286 1.140 . S
C285 C323 1.389 . A
H287 C288 1.140 . S
C288 C289 1.352 . A
C288 C299 1.389 . A
C289 H290 1.140 . S
C289 N296 1.311 . A
C291 H292 1.140 . S
C291 C293 1.352 . A
C291 C304 1.389 . A
C293 H294 1.140 . S
C293 N301 1.311 . A
O295 C298 1.247 . A
O295 Ni322 2.214 . S
N296 C315 1.311 . A
N296 Ni322 2.145 . S
O297 C298 1.267 . A
O297 Ni321 2.011 . S
C299 C313 1.389 . A
O300 C303 1.247 . A
O300 Ni321 2.214 . S
N301 C307 1.311 . A
N301 Ni321 2.145 . S
O302 C303 1.267 . A
O302 Ni322 2.011 . S
C304 C305 1.389 . A
C305 H306 1.140 . S
C305 C307 1.352 . A
C307 H308 1.140 . S
C309 H310 1.140 . S
C309 C311 1.352 . A
C309 C323 1.389 . A
C311 H312 1.140 . S
C313 H314 1.140 . S
C313 C315 1.352 . A
C315 H316 1.140 . S
C317 H318 1.140 . S
C317 C319 1.352 . A
C319 H320 1.140 . S
O324 C327 1.247 . A
O324 Ni375 2.214 1_455 S
N325 C331 1.311 . A
N325 C373 1.311 . A
N325 Ni375 2.145 . S
O326 C327 1.267 . A
O326 Ni376 2.011 . S
C328 C329 1.389 . A
C328 C371 1.389 . A
C329 H330 1.140 . S
C329 C331 1.352 . A
C331 H332 1.140 . S
O333 C336 1.247 . A
O333 Ni376 2.214 . S
O334 C336 1.267 1_655 A
O334 Ni375 2.011 . S
H335 C339 1.140 . S
N337 C338 1.311 . A
N337 C365 1.311 . A
N337 Ni376 2.145 . S
C338 C339 1.352 . A
C338 H340 1.140 . S
C339 C377 1.389 . A
H341 C342 1.140 . S
C342 C343 1.352 . A
C342 C353 1.389 . A
C343 H344 1.140 . S
C343 N350 1.311 . A
C345 H346 1.140 . S
C345 C347 1.352 . A
C345 C358 1.389 . A
C347 H348 1.140 . S
C347 N355 1.311 . A
O349 C352 1.247 . A
O349 Ni376 2.214 . S
N350 C369 1.311 . A
N350 Ni376 2.145 . S
O351 C352 1.267 . A
O351 Ni375 2.011 1_455 S
C353 C367 1.389 . A
O354 C357 1.247 . A
O354 Ni375 2.214 1_455 S
N355 C361 1.311 . A
N355 Ni375 2.145 . S
O356 C357 1.267 . A
O356 Ni376 2.011 . S
C358 C359 1.389 . A
C359 H360 1.140 . S
C359 C361 1.352 . A
C361 H362 1.140 . S
C363 H364 1.140 . S
C363 C365 1.352 . A
C363 C377 1.389 . A
C365 H366 1.140 . S
C367 H368 1.140 . S
C367 C369 1.352 . A
C369 H370 1.140 . S
C371 H372 1.140 . S
C371 C373 1.352 . A
C373 H374 1.140 . S
O378 C381 1.247 . A
O378 Ni429 2.214 . S
N379 C385 1.311 1_545 A
N379 C427 1.311 . A
N379 Ni429 2.145 . S
O380 C381 1.267 . A
O380 Ni430 2.011 . S
C382 C383 1.389 . A
C382 C425 1.389 . A
C383 H384 1.140 . S
C383 C385 1.352 . A
C385 H386 1.140 . S
O387 C390 1.247 . A
O387 Ni430 2.214 . S
O388 C390 1.267 . A
O388 Ni429 2.011 . S
H389 C393 1.140 . S
N391 C392 1.311 . A
N391 C419 1.311 . A
N391 Ni430 2.145 . S
C392 C393 1.352 . A
C392 H394 1.140 . S
C393 C431 1.389 . A
H395 C396 1.140 . S
C396 C397 1.352 . A
C396 C407 1.389 . A
C397 H398 1.140 . S
C397 N404 1.311 . A
C399 H400 1.140 . S
C399 C401 1.352 . A
C399 C412 1.389 . A
C401 H402 1.140 1_565 S
C401 N409 1.311 . A
O403 C406 1.247 . A
O403 Ni430 2.214 . S
N404 C423 1.311 . A
N404 Ni430 2.145 . S
O405 C406 1.267 . A
O405 Ni429 2.011 . S
C407 C421 1.389 . A
O408 C411 1.247 . A
O408 Ni429 2.214 . S
N409 C415 1.311 . A
N409 Ni429 2.145 1_665 S
O410 C411 1.267 . A
O410 Ni430 2.011 . S
C412 C413 1.389 . A
C413 H414 1.140 . S
C413 C415 1.352 . A
C415 H416 1.140 . S
C417 H418 1.140 . S
C417 C419 1.352 . A
C417 C431 1.389 . A
C419 H420 1.140 . S
C421 H422 1.140 . S
C421 C423 1.352 . A
C423 H424 1.140 . S
C425 H426 1.140 . S
C425 C427 1.352 1_565 A
C427 H428 1.140 . S
O432 C435 1.247 . A
O432 Ni483 2.214 . S
N433 C439 1.311 . A
N433 C481 1.311 . A
N433 Ni483 2.145 . S
O434 C435 1.267 . A
O434 Ni484 2.011 . S
C436 C437 1.389 . A
C436 C479 1.389 . A
C437 H438 1.140 . S
C437 C439 1.352 . A
C439 H440 1.140 . S
O441 C444 1.247 . A
O441 Ni484 2.214 . S
O442 C444 1.267 . A
O442 Ni483 2.011 . S
H443 C447 1.140 . S
N445 C446 1.311 . A
N445 C473 1.311 . A
N445 Ni484 2.145 . S
C446 C447 1.352 . A
C446 H448 1.140 . S
C447 C485 1.389 . A
H449 C450 1.140 . S
C450 C451 1.352 . A
C450 C461 1.389 . A
C451 H452 1.140 . S
C451 N458 1.311 . A
C453 H454 1.140 . S
C453 C455 1.352 . A
C453 C466 1.389 . A
C455 H456 1.140 . S
C455 N463 1.311 . A
O457 C460 1.247 . A
O457 Ni484 2.214 . S
N458 C477 1.311 . A
N458 Ni484 2.145 . S
O459 C460 1.267 . A
O459 Ni483 2.011 . S
C461 C475 1.389 . A
O462 C465 1.247 . A
O462 Ni483 2.214 . S
N463 C469 1.311 . A
N463 Ni483 2.145 . S
O464 C465 1.267 . A
O464 Ni484 2.011 . S
C466 C467 1.389 . A
C467 H468 1.140 . S
C467 C469 1.352 . A
C469 H470 1.140 . S
C471 H472 1.140 . S
C471 C473 1.352 . A
C471 C485 1.389 . A
C473 H474 1.140 . S
C475 H476 1.140 . S
C475 C477 1.352 . A
C477 H478 1.140 . S
C479 H480 1.140 . S
C479 C481 1.352 . A
C481 H482 1.140 . S
O486 C489 1.247 . A
O486 Ni537 2.214 . S
N487 C493 1.311 . A
N487 C535 1.311 . A
N487 Ni537 2.145 . S
O488 C489 1.267 . A
O488 Ni538 2.011 . S
C490 C491 1.389 . A
C490 C533 1.389 . A
C491 H492 1.140 . S
C491 C493 1.352 . A
C493 H494 1.140 . S
O495 C498 1.247 . A
O495 Ni538 2.214 . S
O496 C498 1.267 . A
O496 Ni537 2.011 . S
H497 C501 1.140 . S
N499 C500 1.311 . A
N499 C527 1.311 . A
N499 Ni538 2.145 . S
C500 C501 1.352 . A
C500 H502 1.140 . S
C501 C539 1.389 . A
H503 C504 1.140 . S
C504 C505 1.352 . A
C504 C515 1.389 . A
C505 H506 1.140 . S
C505 N512 1.311 . A
C507 H508 1.140 . S
C507 C509 1.352 . A
C507 C520 1.389 . A
C509 H510 1.140 . S
C509 N517 1.311 . A
O511 C514 1.247 . A
O511 Ni538 2.214 . S
N512 C531 1.311 . A
N512 Ni538 2.145 . S
O513 C514 1.267 . A
O513 Ni537 2.011 . S
C515 C529 1.389 . A
O516 C519 1.247 . A
O516 Ni537 2.214 . S
N517 C523 1.311 . A
N517 Ni537 2.145 . S
O518 C519 1.267 . A
O518 Ni538 2.011 . S
C520 C521 1.389 . A
C521 H522 1.140 . S
C521 C523 1.352 . A
C523 H524 1.140 . S
C525 H526 1.140 . S
C525 C527 1.352 . A
C525 C539 1.389 . A
C527 H528 1.140 . S
C529 H530 1.140 . S
C529 C531 1.352 . A
C531 H532 1.140 . S
C533 H534 1.140 . S
C533 C535 1.352 . A
C535 H536 1.140 . S
O540 C543 1.247 . A
O540 Ni591 2.214 . S
N541 C547 1.311 1_455 A
N541 C589 1.311 . A
N541 Ni591 2.145 . S
O542 C543 1.267 . A
O542 Ni592 2.011 . S
C544 C545 1.389 . A
C544 C587 1.389 1_655 A
C545 H546 1.140 . S
C545 C547 1.352 . A
C547 H548 1.140 . S
O549 C552 1.247 . A
O549 Ni592 2.214 . S
O550 C552 1.267 . A
O550 Ni591 2.011 . S
H551 C555 1.140 . S
N553 C554 1.311 . A
N553 C581 1.311 . A
N553 Ni592 2.145 . S
C554 C555 1.352 . A
C554 H556 1.140 . S
C555 C593 1.389 . A
H557 C558 1.140 . S
C558 C559 1.352 . A
C558 C569 1.389 . A
C559 H560 1.140 . S
C559 N566 1.311 . A
C561 H562 1.140 . S
C561 C563 1.352 1_565 A
C561 C574 1.389 . A
C563 H564 1.140 1_655 S
C563 N571 1.311 . A
O565 C568 1.247 1_455 A
O565 Ni592 2.214 . S
N566 C585 1.311 . A
N566 Ni592 2.145 . S
O567 C568 1.267 . A
O567 Ni591 2.011 1_655 S
C569 C583 1.389 . A
O570 C573 1.247 . A
O570 Ni591 2.214 . S
N571 C577 1.311 . A
N571 Ni591 2.145 1_655 S
O572 C573 1.267 . A
O572 Ni592 2.011 . S
C574 C575 1.389 . A
C575 H576 1.140 . S
C575 C577 1.352 1_565 A
C577 H578 1.140 . S
C579 H580 1.140 . S
C579 C581 1.352 . A
C579 C593 1.389 . A
C581 H582 1.140 . S
C583 H584 1.140 . S
C583 C585 1.352 . A
C585 H586 1.140 . S
C587 H588 1.140 . S
C587 C589 1.352 . A
C589 H590 1.140 . S
O594 C597 1.247 . A
O594 Ni645 2.214 . S
N595 C601 1.311 1_665 A
N595 C643 1.311 . A
N595 Ni645 2.145 . S
O596 C597 1.267 . A
O596 Ni646 2.011 . S
C598 C599 1.389 . A
C598 C641 1.389 1_455 A
C599 H600 1.140 . S
C599 C601 1.352 . A
C601 H602 1.140 1_545 S
O603 C606 1.247 . A
O603 Ni646 2.214 . S
O604 C606 1.267 . A
O604 Ni645 2.011 . S
H605 C609 1.140 . S
N607 C608 1.311 . A
N607 C635 1.311 . A
N607 Ni646 2.145 . S
C608 C609 1.352 . A
C608 H610 1.140 . S
C609 C647 1.389 . A
H611 C612 1.140 . S
C612 C613 1.352 . A
C612 C623 1.389 . A
C613 H614 1.140 . S
C613 N620 1.311 . A
C615 H616 1.140 . S
C615 C617 1.352 . A
C615 C628 1.389 . A
C617 H618 1.140 . S
C617 N625 1.311 . A
O619 C622 1.247 . A
O619 Ni646 2.214 . S
N620 C639 1.311 . A
N620 Ni646 2.145 . S
O621 C622 1.267 . A
O621 Ni645 2.011 . S
C623 C637 1.389 . A
O624 C627 1.247 . A
O624 Ni645 2.214 . S
N625 C631 1.311 . A
N625 Ni645 2.145 . S
O626 C627 1.267 . A
O626 Ni646 2.011 . S
C628 C629 1.389 . A
C629 H630 1.140 1_655 S
C629 C631 1.352 . A
C631 H632 1.140 . S
C633 H634 1.140 . S
C633 C635 1.352 . A
C633 C647 1.389 . A
C635 H636 1.140 . S
C637 H638 1.140 . S
C637 C639 1.352 . A
C639 H640 1.140 . S
C641 H642 1.140 . S
C641 C643 1.352 1_545 A
C643 H644 1.140 . S
O648 C651 1.247 . A
O648 Ni699 2.214 . S
N649 C655 1.311 . A
N649 C697 1.311 . A
N649 Ni699 2.145 . S
O650 C651 1.267 . A
O650 Ni700 2.011 . S
C652 C653 1.389 . A
C652 C695 1.389 . A
C653 H654 1.140 . S
C653 C655 1.352 . A
C655 H656 1.140 . S
O657 C660 1.247 . A
O657 Ni700 2.214 . S
O658 C660 1.267 . A
O658 Ni699 2.011 . S
H659 C663 1.140 . S
N661 C662 1.311 . A
N661 C689 1.311 . A
N661 Ni700 2.145 . S
C662 C663 1.352 . A
C662 H664 1.140 . S
C663 C701 1.389 . A
H665 C666 1.140 . S
C666 C667 1.352 . A
C666 C677 1.389 . A
C667 H668 1.140 . S
C667 N674 1.311 . A
C669 H670 1.140 . S
C669 C671 1.352 . A
C669 C682 1.389 . A
C671 H672 1.140 . S
C671 N679 1.311 . A
O673 C676 1.247 . A
O673 Ni700 2.214 . S
N674 C693 1.311 . A
N674 Ni700 2.145 . S
O675 C676 1.267 . A
O675 Ni699 2.011 . S
C677 C691 1.389 . A
O678 C681 1.247 . A
O678 Ni699 2.214 . S
N679 C685 1.311 . A
N679 Ni699 2.145 . S
O680 C681 1.267 . A
O680 Ni700 2.011 . S
C682 C683 1.389 . A
C683 H684 1.140 . S
C683 C685 1.352 . A
C685 H686 1.140 . S
C687 H688 1.140 . S
C687 C689 1.352 . A
C687 C701 1.389 . A
C689 H690 1.140 . S
C691 H692 1.140 . S
C691 C693 1.352 . A
C693 H694 1.140 . S
C695 H696 1.140 . S
C695 C697 1.352 . A
C697 H698 1.140 . S
O702 C705 1.247 . A
O702 Ni753 2.214 . S
N703 C709 1.311 . A
N703 C751 1.311 . A
N703 Ni753 2.145 . S
O704 C705 1.267 . A
O704 Ni754 2.011 . S
C706 C707 1.389 . A
C706 C749 1.389 . A
C707 H708 1.140 . S
C707 C709 1.352 . A
C709 H710 1.140 . S
O711 C714 1.247 . A
O711 Ni754 2.214 . S
O712 C714 1.267 . A
O712 Ni753 2.011 . S
H713 C717 1.140 . S
N715 C716 1.311 . A
N715 C743 1.311 . A
N715 Ni754 2.145 . S
C716 C717 1.352 . A
C716 H718 1.140 . S
C717 C755 1.389 . A
H719 C720 1.140 . S
C720 C721 1.352 . A
C720 C731 1.389 . A
C721 H722 1.140 . S
C721 N728 1.311 . A
C723 H724 1.140 . S
C723 C725 1.352 . A
C723 C736 1.389 . A
C725 H726 1.140 . S
C725 N733 1.311 . A
O727 C730 1.247 . A
O727 Ni754 2.214 . S
N728 C747 1.311 . A
N728 Ni754 2.145 . S
O729 C730 1.267 . A
O729 Ni753 2.011 . S
C731 C745 1.389 . A
O732 C735 1.247 . A
O732 Ni753 2.214 . S
N733 C739 1.311 . A
N733 Ni753 2.145 . S
O734 C735 1.267 . A
O734 Ni754 2.011 . S
C736 C737 1.389 . A
C737 H738 1.140 . S
C737 C739 1.352 . A
C739 H740 1.140 . S
C741 H742 1.140 . S
C741 C743 1.352 . A
C741 C755 1.389 . A
C743 H744 1.140 . S
C745 H746 1.140 . S
C745 C747 1.352 . A
C747 H748 1.140 . S
C749 H750 1.140 . S
C749 C751 1.352 . A
C751 H752 1.140 . S
O756 C759 1.247 . A
O756 Ni807 2.214 . S
N757 C763 1.311 . A
N757 C805 1.311 . A
N757 Ni807 2.145 . S
O758 C759 1.267 . A
O758 Ni808 2.011 . S
C760 C761 1.389 . A
C760 C803 1.389 . A
C761 H762 1.140 . S
C761 C763 1.352 . A
C763 H764 1.140 . S
O765 C768 1.247 . A
O765 Ni808 2.214 . S
O766 C768 1.267 . A
O766 Ni807 2.011 . S
H767 C771 1.140 . S
N769 C770 1.311 . A
N769 C797 1.311 . A
N769 Ni808 2.145 . S
C770 C771 1.352 . A
C770 H772 1.140 . S
C771 C809 1.389 . A
H773 C774 1.140 . S
C774 C775 1.352 . A
C774 C785 1.389 . A
C775 H776 1.140 . S
C775 N782 1.311 . A
C777 H778 1.140 . S
C777 C779 1.352 . A
C777 C790 1.389 . A
C779 H780 1.140 . S
C779 N787 1.311 . A
O781 C784 1.247 . A
O781 Ni808 2.214 . S
N782 C801 1.311 . A
N782 Ni808 2.145 . S
O783 C784 1.267 . A
O783 Ni807 2.011 . S
C785 C799 1.389 . A
O786 C789 1.247 . A
O786 Ni807 2.214 . S
N787 C793 1.311 . A
N787 Ni807 2.145 . S
O788 C789 1.267 . A
O788 Ni808 2.011 . S
C790 C791 1.389 . A
C791 H792 1.140 . S
C791 C793 1.352 . A
C793 H794 1.140 . S
C795 H796 1.140 . S
C795 C797 1.352 . A
C795 C809 1.389 . A
C797 H798 1.140 . S
C799 H800 1.140 . S
C799 C801 1.352 . A
C801 H802 1.140 . S
C803 H804 1.140 . S
C803 C805 1.352 . A
C805 H806 1.140 . S
O810 C813 1.247 . A
O810 Ni861 2.214 . S
N811 C817 1.311 . A
N811 C859 1.311 . A
N811 Ni861 2.145 . S
O812 C813 1.267 . A
O812 Ni862 2.011 . S
C814 C815 1.389 . A
C814 C857 1.389 . A
C815 H816 1.140 . S
C815 C817 1.352 . A
C817 H818 1.140 . S
O819 C822 1.247 . A
O819 Ni862 2.214 . S
O820 C822 1.267 . A
O820 Ni861 2.011 . S
H821 C825 1.140 . S
N823 C824 1.311 . A
N823 C851 1.311 . A
N823 Ni862 2.145 . S
C824 C825 1.352 . A
C824 H826 1.140 . S
C825 C863 1.389 . A
H827 C828 1.140 . S
C828 C829 1.352 . A
C828 C839 1.389 . A
C829 H830 1.140 . S
C829 N836 1.311 . A
C831 H832 1.140 . S
C831 C833 1.352 . A
C831 C844 1.389 . A
C833 H834 1.140 . S
C833 N841 1.311 . A
O835 C838 1.247 . A
O835 Ni862 2.214 . S
N836 C855 1.311 . A
N836 Ni862 2.145 . S
O837 C838 1.267 . A
O837 Ni861 2.011 . S
C839 C853 1.389 . A
O840 C843 1.247 . A
O840 Ni861 2.214 . S
N841 C847 1.311 . A
N841 Ni861 2.145 . S
O842 C843 1.267 . A
O842 Ni862 2.011 . S
C844 C845 1.389 . A
C845 H846 1.140 . S
C845 C847 1.352 . A
C847 H848 1.140 . S
C849 H850 1.140 . S
C849 C851 1.352 . A
C849 C863 1.389 . A
C851 H852 1.140 . S
C853 H854 1.140 . S
C853 C855 1.352 . A
C855 H856 1.140 . S
C857 H858 1.140 . S
C857 C859 1.352 . A
C859 H860 1.140 . S
H864 C884 0.930 . S
H865 C886 0.929 . S
H866 C887 0.931 . S
H867 C888 0.931 . S
H868 C889 0.930 . S
H869 C891 0.931 . S
H870 C897 0.969 . S
H871 C897 0.969 . S
H872 C898 0.971 . S
H873 C898 0.970 . S
H874 C899 0.959 . S
H875 C899 0.960 . S
H876 C899 0.959 . S
H877 C900 0.970 . S
H878 C900 0.969 . S
H879 C901 0.971 . S
H880 C901 0.970 . S
H881 C902 0.960 . S
H882 C902 0.960 . S
H883 C902 0.959 . S
C884 C885 1.392 . A
C884 C893 1.391 . A
C885 C886 1.374 . A
C886 C887 1.407 . A
C887 C894 1.413 . A
C888 C889 1.400 . A
C888 C895 1.421 . A
C889 C890 1.414 . A
C890 C891 1.387 . A
C891 C896 1.410 . A
C892 C893 1.524 . S
C892 C896 1.524 . S
C892 C897 1.570 . S
C892 C900 1.533 . S
C893 C894 1.404 . A
C894 C895 1.494 . S
C895 C896 1.375 . A
C897 C898 1.494 . S
C898 C899 1.581 . S
C900 C901 1.471 . S
C901 C902 1.622 . S
H903 C923 0.930 . S
H904 C925 0.929 . S
H905 C926 0.931 . S
H906 C927 0.931 . S
H907 C928 0.930 . S
H908 C930 0.931 . S
H909 C936 0.969 . S
H910 C936 0.969 . S
H911 C937 0.971 . S
H912 C937 0.970 . S
H913 C938 0.959 . S
H914 C938 0.960 . S
H915 C938 0.959 . S
H916 C939 0.970 . S
H917 C939 0.969 . S
H918 C940 0.971 . S
H919 C940 0.970 . S
H920 C941 0.960 . S
H921 C941 0.960 . S
H922 C941 0.959 . S
C923 C924 1.392 . A
C923 C932 1.391 . A
C924 C925 1.374 . A
C925 C926 1.407 . A
C926 C933 1.413 . A
C927 C928 1.400 . A
C927 C934 1.421 . A
C928 C929 1.414 . A
C929 C930 1.387 . A
C930 C935 1.410 . A
C931 C932 1.524 . S
C931 C935 1.524 . S
C931 C936 1.570 . S
C931 C939 1.533 . S
C932 C933 1.404 . A
C933 C934 1.494 . S
C934 C935 1.375 . A
C936 C937 1.494 . S
C937 C938 1.581 . S
C939 C940 1.471 . S
C940 C941 1.622 . S
H942 C962 0.930 . S
H943 C964 0.929 . S
H944 C965 0.931 . S
H945 C966 0.931 . S
H946 C967 0.930 . S
H947 C969 0.931 . S
H948 C975 0.969 . S
H949 C975 0.969 . S
H950 C976 0.971 . S
H951 C976 0.970 . S
H952 C977 0.959 . S
H953 C977 0.960 . S
H954 C977 0.959 . S
H955 C978 0.970 . S
H956 C978 0.969 . S
H957 C979 0.971 . S
H958 C979 0.970 . S
H959 C980 0.960 . S
H960 C980 0.960 . S
H961 C980 0.959 . S
C962 C963 1.392 . A
C962 C971 1.391 . A
C963 C964 1.374 . A
C964 C965 1.407 . A
C965 C972 1.413 . A
C966 C967 1.400 . A
C966 C973 1.421 . A
C967 C968 1.414 . A
C968 C969 1.387 . A
C969 C974 1.410 . A
C970 C971 1.524 . S
C970 C974 1.524 . S
C970 C975 1.570 . S
C970 C978 1.533 . S
C971 C972 1.404 . A
C972 C973 1.494 . S
C973 C974 1.375 . A
C975 C976 1.494 . S
C976 C977 1.581 . S
C978 C979 1.471 . S
C979 C980 1.622 . S
H981 C1001 0.930 . S
H982 C1003 0.929 . S
H983 C1004 0.931 . S
H984 C1005 0.931 . S
H985 C1006 0.930 . S
H986 C1008 0.931 . S
H987 C1014 0.969 . S
H988 C1014 0.969 . S
H989 C1015 0.971 . S
H990 C1015 0.970 . S
H991 C1016 0.959 . S
H992 C1016 0.960 . S
H993 C1016 0.959 . S
H994 C1017 0.970 . S
H995 C1017 0.969 . S
H996 C1018 0.971 . S
H997 C1018 0.970 . S
H998 C1019 0.960 . S
H999 C1019 0.960 . S
H1000 C1019 0.959 . S
C1001 C1002 1.392 . A
C1001 C1010 1.391 . A
C1002 C1003 1.374 . A
C1003 C1004 1.407 . A
C1004 C1011 1.413 . A
C1005 C1006 1.400 . A
C1005 C1012 1.421 . A
C1006 C1007 1.414 . A
C1007 C1008 1.387 . A
C1008 C1013 1.410 . A
C1009 C1010 1.524 . S
C1009 C1013 1.524 . S
C1009 C1014 1.570 . S
C1009 C1017 1.533 . S
C1010 C1011 1.404 . A
C1011 C1012 1.494 . S
C1012 C1013 1.375 . A
C1014 C1015 1.494 . S
C1015 C1016 1.581 . S
C1017 C1018 1.471 . S
C1018 C1019 1.622 . S
H1020 C1040 0.930 . S
H1021 C1042 0.929 . S
H1022 C1043 0.931 . S
H1023 C1044 0.931 . S
H1024 C1045 0.930 . S
H1025 C1047 0.931 . S
H1026 C1053 0.969 . S
H1027 C1053 0.969 . S
H1028 C1054 0.971 . S
H1029 C1054 0.970 . S
H1030 C1055 0.959 . S
H1031 C1055 0.960 . S
H1032 C1055 0.959 . S
H1033 C1056 0.970 . S
H1034 C1056 0.969 . S
H1035 C1057 0.971 . S
H1036 C1057 0.970 . S
H1037 C1058 0.960 . S
H1038 C1058 0.960 . S
H1039 C1058 0.959 . S
C1040 C1041 1.392 . A
C1040 C1049 1.391 . A
C1041 C1042 1.374 . A
C1042 C1043 1.407 . A
C1043 C1050 1.413 . A
C1044 C1045 1.400 . A
C1044 C1051 1.421 . A
C1045 C1046 1.414 . A
C1046 C1047 1.387 . A
C1047 C1052 1.410 . A
C1048 C1049 1.524 . S
C1048 C1052 1.524 . S
C1048 C1053 1.570 . S
C1048 C1056 1.533 . S
C1049 C1050 1.404 . A
C1050 C1051 1.494 . S
C1051 C1052 1.375 . A
C1053 C1054 1.494 . S
C1054 C1055 1.581 . S
C1056 C1057 1.471 . S
C1057 C1058 1.622 . S
H1059 C1079 0.930 . S
H1060 C1081 0.929 . S
H1061 C1082 0.931 . S
H1062 C1083 0.931 . S
H1063 C1084 0.930 . S
H1064 C1086 0.931 . S
H1065 C1092 0.969 . S
H1066 C1092 0.969 . S
H1067 C1093 0.971 . S
H1068 C1093 0.970 . S
H1069 C1094 0.959 . S
H1070 C1094 0.960 . S
H1071 C1094 0.959 . S
H1072 C1095 0.970 . S
H1073 C1095 0.969 . S
H1074 C1096 0.971 . S
H1075 C1096 0.970 . S
H1076 C1097 0.960 . S
H1077 C1097 0.960 . S
H1078 C1097 0.959 . S
C1079 C1080 1.392 . A
C1079 C1088 1.391 . A
C1080 C1081 1.374 . A
C1081 C1082 1.407 . A
C1082 C1089 1.413 . A
C1083 C1084 1.400 . A
C1083 C1090 1.421 . A
C1084 C1085 1.414 . A
C1085 C1086 1.387 . A
C1086 C1091 1.410 . A
C1087 C1088 1.524 . S
C1087 C1091 1.524 . S
C1087 C1092 1.570 . S
C1087 C1095 1.533 . S
C1088 C1089 1.404 . A
C1089 C1090 1.494 . S
C1090 C1091 1.375 . A
C1092 C1093 1.494 . S
C1093 C1094 1.581 . S
C1095 C1096 1.471 . S
C1096 C1097 1.622 . S
H1098 C1118 0.930 . S
H1099 C1120 0.929 . S
H1100 C1121 0.931 . S
H1101 C1122 0.931 . S
H1102 C1123 0.930 . S
H1103 C1125 0.931 . S
H1104 C1131 0.969 . S
H1105 C1131 0.969 . S
H1106 C1132 0.971 . S
H1107 C1132 0.970 . S
H1108 C1133 0.959 . S
H1109 C1133 0.960 . S
H1110 C1133 0.959 . S
H1111 C1134 0.970 . S
H1112 C1134 0.969 . S
H1113 C1135 0.971 . S
H1114 C1135 0.970 . S
H1115 C1136 0.960 . S
H1116 C1136 0.960 . S
H1117 C1136 0.959 . S
C1118 C1119 1.392 . A
C1118 C1127 1.391 . A
C1119 C1120 1.374 . A
C1120 C1121 1.407 . A
C1121 C1128 1.413 . A
C1122 C1123 1.400 . A
C1122 C1129 1.421 . A
C1123 C1124 1.414 . A
C1124 C1125 1.387 . A
C1125 C1130 1.410 . A
C1126 C1127 1.524 . S
C1126 C1130 1.524 . S
C1126 C1131 1.570 . S
C1126 C1134 1.533 . S
C1127 C1128 1.404 . A
C1128 C1129 1.494 . S
C1129 C1130 1.375 . A
C1131 C1132 1.494 . S
C1132 C1133 1.581 . S
C1134 C1135 1.471 . S
C1135 C1136 1.622 . S
H1137 C1157 0.930 . S
H1138 C1159 0.929 . S
H1139 C1160 0.931 . S
H1140 C1161 0.931 . S
H1141 C1162 0.930 . S
H1142 C1164 0.931 . S
H1143 C1170 0.969 . S
H1144 C1170 0.969 . S
H1145 C1171 0.971 . S
H1146 C1171 0.970 . S
H1147 C1172 0.959 . S
H1148 C1172 0.960 . S
H1149 C1172 0.959 . S
H1150 C1173 0.970 . S
H1151 C1173 0.969 . S
H1152 C1174 0.971 . S
H1153 C1174 0.970 . S
H1154 C1175 0.960 . S
H1155 C1175 0.960 . S
H1156 C1175 0.959 . S
C1157 C1158 1.392 . A
C1157 C1166 1.391 . A
C1158 C1159 1.374 . A
C1159 C1160 1.407 . A
C1160 C1167 1.413 . A
C1161 C1162 1.400 . A
C1161 C1168 1.421 . A
C1162 C1163 1.414 . A
C1163 C1164 1.387 . A
C1164 C1169 1.410 . A
C1165 C1166 1.524 . S
C1165 C1169 1.524 . S
C1165 C1170 1.570 . S
C1165 C1173 1.533 . S
C1166 C1167 1.404 . A
C1167 C1168 1.494 . S
C1168 C1169 1.375 . A
C1170 C1171 1.494 . S
C1171 C1172 1.581 . S
C1173 C1174 1.471 . S
C1174 C1175 1.622 . S
H1176 C1196 0.930 . S
H1177 C1198 0.929 . S
H1178 C1199 0.931 . S
H1179 C1200 0.931 . S
H1180 C1201 0.930 . S
H1181 C1203 0.931 . S
H1182 C1209 0.969 . S
H1183 C1209 0.969 . S
H1184 C1210 0.971 . S
H1185 C1210 0.970 . S
H1186 C1211 0.959 . S
H1187 C1211 0.960 . S
H1188 C1211 0.959 . S
H1189 C1212 0.970 . S
H1190 C1212 0.969 . S
H1191 C1213 0.971 . S
H1192 C1213 0.970 . S
H1193 C1214 0.960 . S
H1194 C1214 0.960 . S
H1195 C1214 0.959 . S
C1196 C1197 1.392 . A
C1196 C1205 1.391 . A
C1197 C1198 1.374 . A
C1198 C1199 1.407 . A
C1199 C1206 1.413 . A
C1200 C1201 1.400 . A
C1200 C1207 1.421 . A
C1201 C1202 1.414 . A
C1202 C1203 1.387 . A
C1203 C1208 1.410 . A
C1204 C1205 1.524 . S
C1204 C1208 1.524 . S
C1204 C1209 1.570 . S
C1204 C1212 1.533 . S
C1205 C1206 1.404 . A
C1206 C1207 1.494 . S
C1207 C1208 1.375 . A
C1209 C1210 1.494 . S
C1210 C1211 1.581 . S
C1212 C1213 1.471 . S
C1213 C1214 1.622 . S
H1215 C1235 0.930 . S
H1216 C1237 0.929 . S
H1217 C1238 0.931 . S
H1218 C1239 0.931 . S
H1219 C1240 0.930 . S
H1220 C1242 0.931 . S
H1221 C1248 0.969 . S
H1222 C1248 0.969 . S
H1223 C1249 0.971 . S
H1224 C1249 0.970 . S
H1225 C1250 0.959 . S
H1226 C1250 0.960 . S
H1227 C1250 0.959 . S
H1228 C1251 0.970 . S
H1229 C1251 0.969 . S
H1230 C1252 0.971 . S
H1231 C1252 0.970 . S
H1232 C1253 0.960 . S
H1233 C1253 0.960 . S
H1234 C1253 0.959 . S
C1235 C1236 1.392 . A
C1235 C1244 1.391 . A
C1236 C1237 1.374 . A
C1237 C1238 1.407 . A
C1238 C1245 1.413 . A
C1239 C1240 1.400 . A
C1239 C1246 1.421 . A
C1240 C1241 1.414 . A
C1241 C1242 1.387 . A
C1242 C1247 1.410 . A
C1243 C1244 1.524 . S
C1243 C1247 1.524 . S
C1243 C1248 1.570 . S
C1243 C1251 1.533 . S
C1244 C1245 1.404 . A
C1245 C1246 1.494 . S
C1246 C1247 1.375 . A
C1248 C1249 1.494 . S
C1249 C1250 1.581 . S
C1251 C1252 1.471 . S
C1252 C1253 1.622 . S
H1254 C1274 0.930 . S
H1255 C1276 0.929 . S
H1256 C1277 0.931 . S
H1257 C1278 0.931 . S
H1258 C1279 0.930 . S
H1259 C1281 0.931 . S
H1260 C1287 0.969 . S
H1261 C1287 0.969 . S
H1262 C1288 0.971 . S
H1263 C1288 0.970 1_455 S
H1264 C1289 0.959 . S
H1265 C1289 0.960 . S
H1266 C1289 0.959 . S
H1267 C1290 0.970 . S
H1268 C1290 0.969 . S
H1269 C1291 0.971 . S
H1270 C1291 0.970 . S
H1271 C1292 0.960 . S
H1272 C1292 0.960 . S
H1273 C1292 0.959 . S
C1274 C1275 1.392 . A
C1274 C1283 1.391 . A
C1275 C1276 1.374 . A
C1276 C1277 1.407 . A
C1277 C1284 1.413 . A
C1278 C1279 1.400 . A
C1278 C1285 1.421 . A
C1279 C1280 1.414 . A
C1280 C1281 1.387 . A
C1281 C1286 1.410 . A
C1282 C1283 1.524 . S
C1282 C1286 1.524 . S
C1282 C1287 1.570 . S
C1282 C1290 1.533 . S
C1283 C1284 1.404 . A
C1284 C1285 1.494 . S
C1285 C1286 1.375 . A
C1287 C1288 1.494 . S
C1288 C1289 1.581 1_655 S
C1290 C1291 1.471 . S
C1291 C1292 1.622 . S
H1293 C1313 0.930 . S
H1294 C1315 0.929 . S
H1295 C1316 0.931 . S
H1296 C1317 0.931 . S
H1297 C1318 0.930 . S
H1298 C1320 0.931 1_545 S
H1299 C1326 0.969 . S
H1300 C1326 0.969 . S
H1301 C1327 0.971 . S
H1302 C1327 0.970 . S
H1303 C1328 0.959 . S
H1304 C1328 0.960 . S
H1305 C1328 0.959 . S
H1306 C1329 0.970 . S
H1307 C1329 0.969 . S
H1308 C1330 0.971 . S
H1309 C1330 0.970 . S
H1310 C1331 0.960 . S
H1311 C1331 0.960 . S
H1312 C1331 0.959 . S
C1313 C1314 1.392 . A
C1313 C1322 1.391 . A
C1314 C1315 1.374 . A
C1315 C1316 1.407 . A
C1316 C1323 1.413 . A
C1317 C1318 1.400 . A
C1317 C1324 1.421 . A
C1318 C1319 1.414 . A
C1319 C1320 1.387 . A
C1320 C1325 1.410 . A
C1321 C1322 1.524 . S
C1321 C1325 1.524 . S
C1321 C1326 1.570 1_565 S
C1321 C1329 1.533 . S
C1322 C1323 1.404 . A
C1323 C1324 1.494 . S
C1324 C1325 1.375 . A
C1326 C1327 1.494 . S
C1327 C1328 1.581 . S
C1329 C1330 1.471 . S
C1330 C1331 1.622 . S
H1332 C1352 0.930 . S
H1333 C1354 0.929 . S
H1334 C1355 0.931 . S
H1335 C1356 0.931 . S
H1336 C1357 0.930 . S
H1337 C1359 0.931 . S
H1338 C1365 0.969 . S
H1339 C1365 0.969 . S
H1340 C1366 0.971 . S
H1341 C1366 0.970 . S
H1342 C1367 0.959 . S
H1343 C1367 0.960 . S
H1344 C1367 0.959 . S
H1345 C1368 0.970 . S
H1346 C1368 0.969 . S
H1347 C1369 0.971 . S
H1348 C1369 0.970 . S
H1349 C1370 0.960 . S
H1350 C1370 0.960 . S
H1351 C1370 0.959 . S
C1352 C1353 1.392 . A
C1352 C1361 1.391 . A
C1353 C1354 1.374 . A
C1354 C1355 1.407 . A
C1355 C1362 1.413 . A
C1356 C1357 1.400 . A
C1356 C1363 1.421 . A
C1357 C1358 1.414 . A
C1358 C1359 1.387 . A
C1359 C1364 1.410 . A
C1360 C1361 1.524 . S
C1360 C1364 1.524 . S
C1360 C1365 1.570 . S
C1360 C1368 1.533 . S
C1361 C1362 1.404 . A
C1362 C1363 1.494 . S
C1363 C1364 1.375 . A
C1365 C1366 1.494 . S
C1366 C1367 1.581 . S
C1368 C1369 1.471 . S
C1369 C1370 1.622 . S
H1371 C1391 0.930 . S
H1372 C1393 0.929 . S
H1373 C1394 0.931 . S
H1374 C1395 0.931 . S
H1375 C1396 0.930 . S
H1376 C1398 0.931 . S
H1377 C1404 0.969 . S
H1378 C1404 0.969 . S
H1379 C1405 0.971 . S
H1380 C1405 0.970 . S
H1381 C1406 0.959 . S
H1382 C1406 0.960 . S
H1383 C1406 0.959 . S
H1384 C1407 0.970 . S
H1385 C1407 0.969 . S
H1386 C1408 0.971 . S
H1387 C1408 0.970 . S
H1388 C1409 0.960 . S
H1389 C1409 0.960 . S
H1390 C1409 0.959 . S
C1391 C1392 1.392 . A
C1391 C1400 1.391 . A
C1392 C1393 1.374 . A
C1393 C1394 1.407 . A
C1394 C1401 1.413 . A
C1395 C1396 1.400 . A
C1395 C1402 1.421 . A
C1396 C1397 1.414 . A
C1397 C1398 1.387 . A
C1398 C1403 1.410 . A
C1399 C1400 1.524 . S
C1399 C1403 1.524 . S
C1399 C1404 1.570 . S
C1399 C1407 1.533 . S
C1400 C1401 1.404 . A
C1401 C1402 1.494 . S
C1402 C1403 1.375 . A
C1404 C1405 1.494 . S
C1405 C1406 1.581 . S
C1407 C1408 1.471 . S
C1408 C1409 1.622 . S
H1410 C1430 0.930 . S
H1411 C1432 0.929 . S
H1412 C1433 0.931 . S
H1413 C1434 0.931 . S
H1414 C1435 0.930 . S
H1415 C1437 0.931 . S
H1416 C1443 0.969 1_556 S
H1417 C1443 0.969 . S
H1418 C1444 0.971 1_556 S
H1419 C1444 0.970 . S
H1420 C1445 0.959 . S
H1421 C1445 0.960 1_554 S
H1422 C1445 0.959 . S
H1423 C1446 0.970 . S
H1424 C1446 0.969 1_556 S
H1425 C1447 0.971 . S
H1426 C1447 0.970 1_556 S
H1427 C1448 0.960 . S
H1428 C1448 0.960 1_556 S
H1429 C1448 0.959 . S
C1430 C1431 1.392 . A
C1430 C1439 1.391 . A
C1431 C1432 1.374 . A
C1432 C1433 1.407 . A
C1433 C1440 1.413 . A
C1434 C1435 1.400 . A
C1434 C1441 1.421 . A
C1435 C1436 1.414 . A
C1436 C1437 1.387 . A
C1437 C1442 1.410 . A
C1438 C1439 1.524 1_554 S
C1438 C1442 1.524 . S
C1438 C1443 1.570 . S
C1438 C1446 1.533 . S
C1439 C1440 1.404 . A
C1440 C1441 1.494 1_556 S
C1441 C1442 1.375 . A
C1443 C1444 1.494 . S
C1444 C1445 1.581 1_554 S
C1446 C1447 1.471 . S
C1447 C1448 1.622 . S
H1449 C1469 0.930 . S
H1450 C1471 0.929 . S
H1451 C1472 0.931 . S
H1452 C1473 0.927 . S
H1453 C1474 0.930 . S
H1454 C1476 0.931 . S
H1455 C1482 0.969 . S
H1456 C1482 0.969 . S
H1457 C1483 0.971 . S
H1458 C1483 0.970 . S
H1459 C1484 0.959 . S
H1460 C1484 0.960 . S
H1461 C1484 0.959 . S
H1462 C1485 0.970 . S
H1463 C1485 0.969 . S
H1464 C1486 0.971 . S
H1465 C1486 0.970 . S
H1466 C1487 0.960 . S
H1467 C1487 0.960 . S
H1468 C1487 0.959 . S
C1469 C1470 1.392 . A
C1469 C1478 1.391 . A
C1470 C1471 1.374 . A
C1471 C1472 1.407 . A
C1472 C1479 1.413 . A
C1473 C1474 1.400 . A
C1473 C1480 1.421 1_556 A
C1474 C1475 1.414 . A
C1475 C1476 1.387 . A
C1476 C1481 1.410 1_556 A
C1477 C1478 1.524 . S
C1477 C1481 1.524 . S
C1477 C1482 1.570 . S
C1477 C1485 1.533 . S
C1478 C1479 1.404 . A
C1479 C1480 1.494 . S
C1480 C1481 1.375 . A
C1482 C1483 1.494 . S
C1483 C1484 1.581 . S
C1485 C1486 1.471 . S
C1486 C1487 1.622 . S
H1488 C1508 0.930 . S
H1489 C1510 0.929 . S
H1490 C1511 0.931 . S
H1491 C1512 0.931 . S
H1492 C1513 0.930 . S
H1493 C1515 0.931 . S
H1494 C1521 0.969 . S
H1495 C1521 0.969 . S
H1496 C1522 0.971 . S
H1497 C1522 0.970 1_554 S
H1498 C1523 0.959 . S
H1499 C1523 0.960 . S
H1500 C1523 0.959 . S
H1501 C1524 0.970 . S
H1502 C1524 0.969 . S
H1503 C1525 0.971 . S
H1504 C1525 0.970 . S
H1505 C1526 0.960 . S
H1506 C1526 0.960 . S
H1507 C1526 0.959 . S
C1508 C1509 1.392 . A
C1508 C1517 1.391 . A
C1509 C1510 1.374 . A
C1510 C1511 1.407 . A
C1511 C1518 1.413 . A
C1512 C1513 1.400 . A
C1512 C1519 1.421 . A
C1513 C1514 1.414 . A
C1514 C1515 1.387 . A
C1515 C1520 1.410 . A
C1516 C1517 1.524 . S
C1516 C1520 1.524 1_556 S
C1516 C1521 1.570 . S
C1516 C1524 1.533 . S
C1517 C1518 1.404 . A
C1518 C1519 1.494 1_556 S
C1519 C1520 1.375 . A
C1521 C1522 1.494 . S
C1522 C1523 1.581 . S
C1524 C1525 1.471 . S
C1525 C1526 1.622 . S
H1527 C1547 0.930 . S
H1528 C1549 0.929 . S
H1529 C1550 0.931 . S
H1530 C1551 0.931 . S
H1531 C1552 0.930 . S
H1532 C1554 0.931 . S
H1533 C1560 0.978 . S
H1534 C1560 0.949 1_554 S
H1535 C1561 0.971 . S
H1536 C1561 0.970 1_554 S
H1537 C1562 0.959 . S
H1538 C1562 0.960 . S
H1539 C1562 0.959 . S
H1540 C1563 0.970 . S
H1541 C1563 0.969 . S
H1542 C1564 0.971 . S
H1543 C1564 0.970 . S
H1544 C1565 0.960 . S
H1545 C1565 0.960 . S
H1546 C1565 0.959 . S
C1547 C1548 1.392 . A
C1547 C1556 1.391 . A
C1548 C1549 1.374 . A
C1549 C1550 1.407 . A
C1550 C1557 1.413 . A
C1551 C1552 1.400 . A
C1551 C1558 1.421 . A
C1552 C1553 1.414 . A
C1553 C1554 1.387 . A
C1554 C1559 1.410 . A
C1555 C1556 1.524 1_554 S
C1555 C1559 1.524 . S
C1555 C1560 1.562 1_554 S
C1555 C1563 1.533 . S
C1556 C1557 1.404 . A
C1557 C1558 1.494 1_556 S
C1558 C1559 1.375 . A
C1560 C1561 1.514 . S
C1561 C1562 1.581 . S
C1563 C1564 1.471 . S
C1564 C1565 1.622 . S
H1566 C1586 0.930 . S
H1567 C1588 0.929 . S
H1568 C1589 0.931 . S
H1569 C1590 0.931 . S
H1570 C1591 0.930 . S
H1571 C1593 0.931 . S
H1572 C1599 0.969 . S
H1573 C1599 0.969 . S
H1574 C1600 0.971 . S
H1575 C1600 0.970 . S
H1576 C1601 0.959 1_545 S
H1577 C1601 0.960 . S
H1578 C1601 0.959 1_545 S
H1579 C1602 0.970 . S
H1580 C1602 0.969 . S
H1581 C1603 0.971 . S
H1582 C1603 0.970 . S
H1583 C1604 0.960 . S
H1584 C1604 0.960 . S
H1585 C1604 0.959 . S
C1586 C1587 1.392 . A
C1586 C1595 1.391 . A
C1587 C1588 1.374 . A
C1588 C1589 1.407 . A
C1589 C1596 1.413 . A
C1590 C1591 1.400 . A
C1590 C1597 1.421 . A
C1591 C1592 1.414 . A
C1592 C1593 1.387 . A
C1593 C1598 1.410 . A
C1594 C1595 1.524 . S
C1594 C1598 1.524 . S
C1594 C1599 1.570 . S
C1594 C1602 1.533 . S
C1595 C1596 1.404 . A
C1596 C1597 1.494 . S
C1597 C1598 1.375 . A
C1599 C1600 1.494 . S
C1600 C1601 1.581 . S
C1602 C1603 1.471 . S
C1603 C1604 1.622 . S
H1605 C1625 0.930 . S
H1606 C1627 0.929 . S
H1607 C1628 0.931 . S
H1608 C1629 0.931 . S
H1609 C1630 0.930 . S
H1610 C1632 0.931 . S
H1611 C1638 0.969 . S
H1612 C1638 0.969 . S
H1613 C1639 0.971 . S
H1614 C1639 0.970 . S
H1615 C1640 0.959 . S
H1616 C1640 0.960 . S
H1617 C1640 0.959 . S
H1618 C1641 0.970 . S
H1619 C1641 0.969 . S
H1620 C1642 0.971 . S
H1621 C1642 0.970 . S
H1622 C1643 0.960 . S
H1623 C1643 0.960 . S
H1624 C1643 0.959 . S
C1625 C1626 1.392 . A
C1625 C1634 1.391 . A
C1626 C1627 1.374 . A
C1627 C1628 1.407 . A
C1628 C1635 1.413 . A
C1629 C1630 1.400 . A
C1629 C1636 1.421 . A
C1630 C1631 1.414 . A
C1631 C1632 1.387 . A
C1632 C1637 1.410 . A
C1633 C1634 1.524 . S
C1633 C1637 1.524 . S
C1633 C1638 1.570 . S
C1633 C1641 1.533 . S
C1634 C1635 1.404 . A
C1635 C1636 1.494 . S
C1636 C1637 1.375 . A
C1638 C1639 1.494 . S
C1639 C1640 1.581 . S
C1641 C1642 1.471 . S
C1642 C1643 1.622 . S
H1644 C1664 0.930 . S
H1645 C1666 0.929 . S
H1646 C1667 0.931 1_655 S
H1647 C1668 0.931 . S
H1648 C1669 0.930 . S
H1649 C1671 0.931 . S
H1650 C1677 0.969 . S
H1651 C1677 0.969 . S
H1652 C1678 0.971 . S
H1653 C1678 0.970 . S
H1654 C1679 0.959 . S
H1655 C1679 0.960 . S
H1656 C1679 0.959 . S
H1657 C1680 0.970 . S
H1658 C1680 0.969 . S
H1659 C1681 0.971 . S
H1660 C1681 0.970 . S
H1661 C1682 0.960 . S
H1662 C1682 0.960 . S
H1663 C1682 0.959 . S
C1664 C1665 1.392 . A
C1664 C1673 1.391 . A
C1665 C1666 1.374 1_455 A
C1666 C1667 1.407 1_655 A
C1667 C1674 1.413 . A
C1668 C1669 1.400 . A
C1668 C1675 1.421 . A
C1669 C1670 1.414 . A
C1670 C1671 1.387 . A
C1671 C1676 1.410 . A
C1672 C1673 1.524 . S
C1672 C1676 1.524 . S
C1672 C1677 1.570 . S
C1672 C1680 1.533 . S
C1673 C1674 1.404 . A
C1674 C1675 1.494 . S
C1675 C1676 1.375 . A
C1677 C1678 1.494 . S
C1678 C1679 1.581 . S
C1680 C1681 1.471 . S
C1681 C1682 1.622 . S
H1683 C1703 0.930 . S
H1684 C1705 0.929 . S
H1685 C1706 0.931 . S
H1686 C1707 0.931 . S
H1687 C1708 0.930 . S
H1688 C1710 0.931 . S
H1689 C1716 0.969 . S
H1690 C1716 0.969 . S
H1691 C1717 0.971 . S
H1692 C1717 0.970 . S
H1693 C1718 0.959 . S
H1694 C1718 0.960 . S
H1695 C1718 0.959 . S
H1696 C1719 0.970 . S
H1697 C1719 0.969 . S
H1698 C1720 0.971 . S
H1699 C1720 0.970 . S
H1700 C1721 0.960 . S
H1701 C1721 0.960 . S
H1702 C1721 0.959 . S
C1703 C1704 1.392 . A
C1703 C1712 1.391 . A
C1704 C1705 1.374 . A
C1705 C1706 1.407 . A
C1706 C1713 1.413 . A
C1707 C1708 1.400 . A
C1707 C1714 1.421 . A
C1708 C1709 1.414 . A
C1709 C1710 1.387 . A
C1710 C1715 1.410 . A
C1711 C1712 1.524 . S
C1711 C1715 1.524 . S
C1711 C1716 1.570 . S
C1711 C1719 1.533 . S
C1712 C1713 1.404 . A
C1713 C1714 1.494 . S
C1714 C1715 1.375 . A
C1716 C1717 1.494 . S
C1717 C1718 1.581 . S
C1719 C1720 1.471 . S
C1720 C1721 1.622 1_565 S
H1722 C1742 0.930 . S
H1723 C1744 0.929 . S
H1724 C1745 0.931 . S
H1725 C1746 0.931 . S
H1726 C1747 0.930 . S
H1727 C1749 0.931 . S
H1728 C1755 0.969 . S
H1729 C1755 0.969 . S
H1730 C1756 0.971 . S
H1731 C1756 0.970 . S
H1732 C1757 0.959 . S
H1733 C1757 0.960 . S
H1734 C1757 0.959 . S
H1735 C1758 0.970 . S
H1736 C1758 0.969 . S
H1737 C1759 0.971 . S
H1738 C1759 0.970 . S
H1739 C1760 0.960 . S
H1740 C1760 0.960 . S
H1741 C1760 0.959 . S
C1742 C1743 1.392 . A
C1742 C1751 1.391 . A
C1743 C1744 1.374 . A
C1744 C1745 1.407 . A
C1745 C1752 1.413 . A
C1746 C1747 1.400 . A
C1746 C1753 1.421 . A
C1747 C1748 1.414 . A
C1748 C1749 1.387 . A
C1749 C1754 1.410 . A
C1750 C1751 1.524 . S
C1750 C1754 1.524 . S
C1750 C1755 1.570 . S
C1750 C1758 1.533 . S
C1751 C1752 1.404 . A
C1752 C1753 1.494 . S
C1753 C1754 1.375 . A
C1755 C1756 1.494 . S
C1756 C1757 1.581 . S
C1758 C1759 1.471 . S
C1759 C1760 1.622 . S
H1761 C1781 0.930 . S
H1762 C1783 0.929 . S
H1763 C1784 0.931 . S
H1764 C1785 0.931 . S
H1765 C1786 0.930 . S
H1766 C1788 0.931 . S
H1767 C1794 0.969 . S
H1768 C1794 0.969 . S
H1769 C1795 0.971 . S
H1770 C1795 0.970 . S
H1771 C1796 0.959 . S
H1772 C1796 0.960 . S
H1773 C1796 0.959 . S
H1774 C1797 0.970 . S
H1775 C1797 0.969 . S
H1776 C1798 0.971 . S
H1777 C1798 0.970 . S
H1778 C1799 0.960 . S
H1779 C1799 0.960 . S
H1780 C1799 0.959 . S
C1781 C1782 1.392 . A
C1781 C1790 1.391 . A
C1782 C1783 1.374 . A
C1783 C1784 1.407 . A
C1784 C1791 1.413 . A
C1785 C1786 1.400 . A
C1785 C1792 1.421 . A
C1786 C1787 1.414 . A
C1787 C1788 1.387 . A
C1788 C1793 1.410 . A
C1789 C1790 1.524 . S
C1789 C1793 1.524 . S
C1789 C1794 1.570 . S
C1789 C1797 1.533 . S
C1790 C1791 1.404 . A
C1791 C1792 1.494 . S
C1792 C1793 1.375 . A
C1794 C1795 1.494 . S
C1795 C1796 1.581 . S
C1797 C1798 1.471 . S
C1798 C1799 1.622 . S
H1800 C1820 0.930 . S
H1801 C1822 0.929 . S
H1802 C1823 0.931 . S
H1803 C1824 0.931 1_455 S
H1804 C1825 0.930 1_455 S
H1805 C1827 0.931 . S
H1806 C1833 0.969 . S
H1807 C1833 0.969 . S
H1808 C1834 0.971 . S
H1809 C1834 0.970 . S
H1810 C1835 0.959 . S
H1811 C1835 0.960 . S
H1812 C1835 0.959 . S
H1813 C1836 0.970 . S
H1814 C1836 0.969 . S
H1815 C1837 0.971 . S
H1816 C1837 0.970 . S
H1817 C1838 0.960 . S
H1818 C1838 0.960 . S
H1819 C1838 0.959 . S
C1820 C1821 1.392 . A
C1820 C1829 1.391 . A
C1821 C1822 1.374 . A
C1822 C1823 1.407 . A
C1823 C1830 1.413 . A
C1824 C1825 1.400 . A
C1824 C1831 1.421 . A
C1825 C1826 1.414 . A
C1826 C1827 1.387 . A
C1827 C1832 1.410 . A
C1828 C1829 1.524 . S
C1828 C1832 1.524 . S
C1828 C1833 1.570 . S
C1828 C1836 1.533 . S
C1829 C1830 1.404 . A
C1830 C1831 1.494 . S
C1831 C1832 1.375 . A
C1833 C1834 1.494 . S
C1834 C1835 1.581 . S
C1836 C1837 1.471 . S
C1837 C1838 1.622 . S
H1839 C1859 0.930 . S
H1840 C1861 0.929 . S
H1841 C1862 0.931 . S
H1842 C1863 0.931 . S
H1843 C1864 0.930 . S
H1844 C1866 0.931 . S
H1845 C1872 0.969 . S
H1846 C1872 0.969 . S
H1847 C1873 0.971 . S
H1848 C1873 0.970 . S
H1849 C1874 0.959 . S
H1850 C1874 0.960 . S
H1851 C1874 0.959 . S
H1852 C1875 0.970 . S
H1853 C1875 0.969 . S
H1854 C1876 0.971 . S
H1855 C1876 0.970 . S
H1856 C1877 0.960 . S
H1857 C1877 0.960 . S
H1858 C1877 0.959 . S
C1859 C1860 1.392 . A
C1859 C1868 1.391 . A
C1860 C1861 1.374 . A
C1861 C1862 1.407 . A
C1862 C1869 1.413 . A
C1863 C1864 1.400 . A
C1863 C1870 1.421 . A
C1864 C1865 1.414 . A
C1865 C1866 1.387 . A
C1866 C1871 1.410 . A
C1867 C1868 1.524 . S
C1867 C1871 1.524 . S
C1867 C1872 1.570 . S
C1867 C1875 1.533 . S
C1868 C1869 1.404 . A
C1869 C1870 1.494 . S
C1870 C1871 1.375 . A
C1872 C1873 1.494 . S
C1873 C1874 1.581 . S
C1875 C1876 1.471 . S
C1876 C1877 1.622 . S
H1878 C1898 0.930 . S
H1879 C1900 0.929 . S
H1880 C1901 0.931 . S
H1881 C1902 0.931 . S
H1882 C1903 0.930 . S
H1883 C1905 0.931 . S
H1884 C1911 0.969 . S
H1885 C1911 0.969 . S
H1886 C1912 0.971 . S
H1887 C1912 0.970 . S
H1888 C1913 0.959 . S
H1889 C1913 0.960 . S
H1890 C1913 0.959 . S
H1891 C1914 0.970 . S
H1892 C1914 0.969 . S
H1893 C1915 0.971 . S
H1894 C1915 0.970 . S
H1895 C1916 0.960 . S
H1896 C1916 0.960 . S
H1897 C1916 0.959 . S
C1898 C1899 1.392 . A
C1898 C1907 1.391 . A
C1899 C1900 1.374 . A
C1900 C1901 1.407 . A
C1901 C1908 1.413 . A
C1902 C1903 1.400 . A
C1902 C1909 1.421 . A
C1903 C1904 1.414 . A
C1904 C1905 1.387 . A
C1905 C1910 1.410 . A
C1906 C1907 1.524 . S
C1906 C1910 1.524 . S
C1906 C1911 1.570 . S
C1906 C1914 1.533 . S
C1907 C1908 1.404 . A
C1908 C1909 1.494 . S
C1909 C1910 1.375 . A
C1911 C1912 1.494 . S
C1912 C1913 1.581 . S
C1914 C1915 1.471 . S
C1915 C1916 1.622 . S
H1917 C1937 0.930 . S
H1918 C1939 0.929 . S
H1919 C1940 0.931 . S
H1920 C1941 0.931 . S
H1921 C1942 0.930 . S
H1922 C1944 0.931 . S
H1923 C1950 0.969 . S
H1924 C1950 0.969 . S
H1925 C1951 0.971 . S
H1926 C1951 0.970 . S
H1927 C1952 0.959 . S
H1928 C1952 0.960 . S
H1929 C1952 0.959 . S
H1930 C1953 0.970 . S
H1931 C1953 0.969 . S
H1932 C1954 0.971 . S
H1933 C1954 0.970 . S
H1934 C1955 0.960 . S
H1935 C1955 0.960 . S
H1936 C1955 0.959 . S
C1937 C1938 1.392 . A
C1937 C1946 1.391 . A
C1938 C1939 1.374 . A
C1939 C1940 1.407 . A
C1940 C1947 1.413 . A
C1941 C1942 1.400 . A
C1941 C1948 1.421 . A
C1942 C1943 1.414 . A
C1943 C1944 1.387 . A
C1944 C1949 1.410 . A
C1945 C1946 1.524 . S
C1945 C1949 1.524 . S
C1945 C1950 1.570 . S
C1945 C1953 1.533 . S
C1946 C1947 1.404 . A
C1947 C1948 1.494 . S
C1948 C1949 1.375 . A
C1950 C1951 1.494 . S
C1951 C1952 1.581 . S
C1953 C1954 1.471 . S
C1954 C1955 1.622 . S
H1956 C1976 0.930 . S
H1957 C1978 0.929 . S
H1958 C1979 0.931 . S
H1959 C1980 0.931 . S
H1960 C1981 0.930 . S
H1961 C1983 0.931 . S
H1962 C1989 0.969 . S
H1963 C1989 0.969 . S
H1964 C1990 0.971 . S
H1965 C1990 0.970 . S
H1966 C1991 0.959 . S
H1967 C1991 0.960 . S
H1968 C1991 0.959 . S
H1969 C1992 0.970 . S
H1970 C1992 0.969 . S
H1971 C1993 0.971 . S
H1972 C1993 0.970 . S
H1973 C1994 0.960 1_455 S
H1974 C1994 0.960 . S
H1975 C1994 0.959 . S
C1976 C1977 1.392 . A
C1976 C1985 1.391 . A
C1977 C1978 1.374 . A
C1978 C1979 1.407 . A
C1979 C1986 1.413 . A
C1980 C1981 1.400 . A
C1980 C1987 1.421 . A
C1981 C1982 1.414 . A
C1982 C1983 1.387 . A
C1983 C1988 1.410 . A
C1984 C1985 1.524 . S
C1984 C1988 1.524 . S
C1984 C1989 1.570 1_455 S
C1984 C1992 1.533 1_455 S
C1985 C1986 1.404 . A
C1986 C1987 1.494 . S
C1987 C1988 1.375 . A
C1989 C1990 1.494 1_655 S
C1990 C1991 1.581 1_455 S
C1992 C1993 1.471 1_655 S
C1993 C1994 1.622 1_455 S
H1995 C2015 0.930 . S
H1996 C2017 0.929 . S
H1997 C2018 0.931 . S
H1998 C2019 0.931 . S
H1999 C2020 0.930 . S
H2000 C2022 0.931 . S
H2001 C2028 0.969 . S
H2002 C2028 0.969 . S
H2003 C2029 0.971 . S
H2004 C2029 0.970 . S
H2005 C2030 0.959 . S
H2006 C2030 0.960 . S
H2007 C2030 0.959 . S
H2008 C2031 0.970 . S
H2009 C2031 0.969 . S
H2010 C2032 0.971 . S
H2011 C2032 0.970 . S
H2012 C2033 0.960 . S
H2013 C2033 0.960 . S
H2014 C2033 0.959 . S
C2015 C2016 1.392 . A
C2015 C2024 1.391 . A
C2016 C2017 1.374 . A
C2017 C2018 1.407 . A
C2018 C2025 1.413 . A
C2019 C2020 1.400 . A
C2019 C2026 1.421 . A
C2020 C2021 1.414 . A
C2021 C2022 1.387 . A
C2022 C2027 1.410 . A
C2023 C2024 1.524 . S
C2023 C2027 1.524 . S
C2023 C2028 1.570 . S
C2023 C2031 1.533 . S
C2024 C2025 1.404 . A
C2025 C2026 1.494 . S
C2026 C2027 1.375 . A
C2028 C2029 1.494 . S
C2029 C2030 1.581 . S
C2031 C2032 1.471 . S
C2032 C2033 1.622 . S
H2034 C2054 0.930 . S
H2035 C2056 0.929 . S
H2036 C2057 0.931 1_655 S
H2037 C2058 0.910 1_655 S
H2038 C2059 0.930 . S
H2039 C2061 0.931 . S
H2040 C2067 0.969 . S
H2041 C2067 0.969 . S
H2042 C2068 0.971 . S
H2043 C2068 0.970 . S
H2044 C2069 0.959 . S
H2045 C2069 0.960 . S
H2046 C2069 0.959 . S
H2047 C2070 0.970 . S
H2048 C2070 0.969 . S
H2049 C2071 0.971 1_655 S
H2050 C2071 0.970 1_655 S
H2051 C2072 0.960 . S
H2052 C2072 0.960 . S
H2053 C2072 0.959 . S
C2054 C2055 1.392 . A
C2054 C2063 1.391 . A
C2055 C2056 1.374 . A
C2056 C2057 1.407 . A
C2057 C2064 1.413 . A
C2058 C2059 1.400 . A
C2058 C2065 1.421 . A
C2059 C2060 1.414 . A
C2060 C2061 1.387 . A
C2061 C2066 1.410 . A
C2062 C2063 1.524 . S
C2062 C2066 1.524 . S
C2062 C2067 1.570 . S
C2062 C2070 1.533 . S
C2063 C2064 1.404 . A
C2064 C2065 1.494 . S
C2065 C2066 1.375 . A
C2067 C2068 1.494 . S
C2068 C2069 1.581 . S
C2070 C2071 1.471 . S
C2071 C2072 1.622 1_455 S
H2073 C2093 0.930 . S
H2074 C2095 0.929 . S
H2075 C2096 0.931 . S
H2076 C2097 0.931 . S
H2077 C2098 0.930 . S
H2078 C2100 0.931 . S
H2079 C2106 0.969 . S
H2080 C2106 0.969 . S
H2081 C2107 0.971 . S
H2082 C2107 0.970 . S
H2083 C2108 0.959 . S
H2084 C2108 0.960 . S
H2085 C2108 0.959 . S
H2086 C2109 0.970 . S
H2087 C2109 0.969 1_565 S
H2088 C2110 0.971 . S
H2089 C2110 0.970 . S
H2090 C2111 0.960 . S
H2091 C2111 0.960 . S
H2092 C2111 0.959 . S
C2093 C2094 1.392 . A
C2093 C2102 1.391 . A
C2094 C2095 1.374 . A
C2095 C2096 1.407 . A
C2096 C2103 1.413 . A
C2097 C2098 1.400 . A
C2097 C2104 1.421 . A
C2098 C2099 1.414 . A
C2099 C2100 1.387 . A
C2100 C2105 1.410 . A
C2101 C2102 1.524 . S
C2101 C2105 1.524 . S
C2101 C2106 1.570 . S
C2101 C2109 1.533 . S
C2102 C2103 1.404 . A
C2103 C2104 1.494 . S
C2104 C2105 1.375 . A
C2106 C2107 1.494 . S
C2107 C2108 1.581 . S
C2109 C2110 1.471 1_545 S
C2110 C2111 1.622 . S
C885 C768 1.581 . S
C890 C3 1.602 . S
C924 C813 1.478 . S
C929 C82 1.445 . S
C963 C141 0.554 . S
C968 C444 0.291 . S
C1002 C174 1.179 . S
C1007 C489 1.164 . S
C1041 C543 3.275 . S
C1046 C244 2.995 . S
C1080 C298 2.787 . S
C1085 C627 2.977 . S
C1119 C676 1.185 . S
C1124 C327 1.114 . S
C1158 C390 0.270 . S
C1163 C735 0.355 . S
C1197 C4 1.319 . S
C1202 C273 1.544 . S
C1236 C249 1.413 . S
C1241 C83 1.317 . S
C1275 C136 2.448 1_545 S
C1280 C87 2.446 . S
C1314 C137 2.309 . S
C1319 C195 2.449 . S
C1353 C245 1.347 . S
C1358 C215 1.313 . S
C1392 C274 0.941 . S
C1397 C328 0.825 . S
C1431 C353 2.928 . S
C1436 C196 3.012 . S
C1470 C88 1.979 . S
C1475 C53 1.991 . S
C1509 C299 2.920 . S
C1514 C142 3.213 . S
C1548 C431 2.610 . S
C1553 C250 2.416 . S
C1587 C628 2.607 . S
C1592 C485 2.850 . S
C1626 C539 1.950 . S
C1631 C682 2.067 . S
C1665 C544 2.987 1_455 S
C1670 C736 3.227 . S
C1704 C606 0.602 . S
C1709 C677 0.737 . S
C1743 C681 3.629 . S
C1748 C730 3.684 . S
C1782 C731 1.723 . S
C1787 C789 1.789 . S
C1821 C647 1.225 . S
C1826 C809 1.259 . S
C1860 C814 1.727 . S
C1865 C552 1.842 . S
C1899 C838 2.853 . S
C1904 C436 2.785 . S
C1938 C498 2.636 . S
C1943 C435 2.760 . S
C1977 C593 0.386 . S
C1982 C490 0.420 . S
C2016 C790 2.660 . S
C2021 C839 2.836 . S
C2055 C382 2.486 . S
C2060 C352 2.602 . S
C2094 C12 2.754 . S
C2099 C381 2.775 1_655 S
