# Generated by pormake.
# Topology pcb, (4)-cn, num edge types: 1
# Building blocks:
#     Node 0, Type 0, BuildingBlock: N109, # of connection points: 4
#     Node 1, Type 0, BuildingBlock: N109, # of connection points: 4
#     Node 2, Type 0, BuildingBlock: N109, # of connection points: 4
#     Node 3, Type 0, BuildingBlock: N109, # of connection points: 4
#     Node 4, Type 0, BuildingBlock: N109, # of connection points: 4
#     Node 5, Type 0, BuildingBlock: N109, # of connection points: 4
#     Node 6, Type 0, BuildingBlock: N109, # of connection points: 4
#     Node 7, Type 0, BuildingBlock: N109, # of connection points: 4
#     Node 8, Type 0, BuildingBlock: N109, # of connection points: 4
#     Node 9, Type 0, BuildingBlock: N109, # of connection points: 4
#     Node 10, Type 0, BuildingBlock: N109, # of connection points: 4
#     Node 11, Type 0, BuildingBlock: N109, # of connection points: 4
#     Node 12, Type 0, BuildingBlock: N109, # of connection points: 4
#     Node 13, Type 0, BuildingBlock: N109, # of connection points: 4
#     Node 14, Type 0, BuildingBlock: N109, # of connection points: 4
#     Node 15, Type 0, BuildingBlock: N109, # of connection points: 4
#     Edge 16, Type (0, 0), BuildingBlock: E63, # of connection points: 2
#     Edge 17, Type (0, 0), BuildingBlock: E63, # of connection points: 2
#     Edge 18, Type (0, 0), BuildingBlock: E63, # of connection points: 2
#     Edge 19, Type (0, 0), BuildingBlock: E63, # of connection points: 2
#     Edge 20, Type (0, 0), BuildingBlock: E63, # of connection points: 2
#     Edge 21, Type (0, 0), BuildingBlock: E63, # of connection points: 2
#     Edge 22, Type (0, 0), BuildingBlock: E63, # of connection points: 2
#     Edge 23, Type (0, 0), BuildingBlock: E63, # of connection points: 2
#     Edge 24, Type (0, 0), BuildingBlock: E63, # of connection points: 2
#     Edge 25, Type (0, 0), BuildingBlock: E63, # of connection points: 2
#     Edge 26, Type (0, 0), BuildingBlock: E63, # of connection points: 2
#     Edge 27, Type (0, 0), BuildingBlock: E63, # of connection points: 2
#     Edge 28, Type (0, 0), BuildingBlock: E63, # of connection points: 2
#     Edge 29, Type (0, 0), BuildingBlock: E63, # of connection points: 2
#     Edge 30, Type (0, 0), BuildingBlock: E63, # of connection points: 2
#     Edge 31, Type (0, 0), BuildingBlock: E63, # of connection points: 2
#     Edge 32, Type (0, 0), BuildingBlock: E63, # of connection points: 2
#     Edge 33, Type (0, 0), BuildingBlock: E63, # of connection points: 2
#     Edge 34, Type (0, 0), BuildingBlock: E63, # of connection points: 2
#     Edge 35, Type (0, 0), BuildingBlock: E63, # of connection points: 2
#     Edge 36, Type (0, 0), BuildingBlock: E63, # of connection points: 2
#     Edge 37, Type (0, 0), BuildingBlock: E63, # of connection points: 2
#     Edge 38, Type (0, 0), BuildingBlock: E63, # of connection points: 2
#     Edge 39, Type (0, 0), BuildingBlock: E63, # of connection points: 2
#     Edge 40, Type (0, 0), BuildingBlock: E63, # of connection points: 2
#     Edge 41, Type (0, 0), BuildingBlock: E63, # of connection points: 2
#     Edge 42, Type (0, 0), BuildingBlock: E63, # of connection points: 2
#     Edge 43, Type (0, 0), BuildingBlock: E63, # of connection points: 2
#     Edge 44, Type (0, 0), BuildingBlock: E63, # of connection points: 2
#     Edge 45, Type (0, 0), BuildingBlock: E63, # of connection points: 2
#     Edge 46, Type (0, 0), BuildingBlock: E63, # of connection points: 2
#     Edge 47, Type (0, 0), BuildingBlock: E63, # of connection points: 2
# Relax obj value: 0.358
# Max RMSD: 0.278
# Mean RMSD: 0.187
data_pcb+N109+E63
_symmetry_space_group_name_H-M    P1
_symmetry_Int_Tables_number       1
_symmetry_cell_setting            triclinic
loop_
_symmetry_equiv_pos_as_xyz
'x, y, z'
_cell_length_a     24.723
_cell_length_b     32.652
_cell_length_c     32.652
_cell_angle_alpha  90.712
_cell_angle_beta   98.071
_cell_angle_gamma  98.071
loop_
_atom_site_label
_atom_site_type_symbol
_atom_site_fract_x
_atom_site_fract_y
_atom_site_fract_z
_atom_type_partial_charge
O0 O 0.79575 0.15530 0.90140 0.00000
O1 O 0.71847 0.12850 0.87484 0.00000
O2 O 0.77219 0.20108 0.82542 0.00000
O3 O 0.72657 0.15137 0.79053 0.00000
C4 C 0.87636 0.14545 0.82192 0.00000
O5 O 0.75984 0.08067 0.82939 0.00000
O6 O 0.81681 0.06562 0.88627 0.00000
C7 C 0.74692 0.14349 0.90798 0.00000
In8 In 0.78124 0.14282 0.83967 0.00000
C9 C 0.73611 0.18993 0.79494 0.00000
C10 C 0.78321 0.05278 0.85626 0.00000
O11 O 0.86287 0.16336 0.85267 0.00000
O12 O 0.83436 0.12343 0.80261 0.00000
O13 O 0.82438 0.15503 0.12938 0.00000
O14 O 0.81252 0.13336 0.18667 0.00000
O15 O 0.74569 0.20499 0.15770 0.00000
O16 O 0.70582 0.15864 0.18995 0.00000
C17 C 0.68912 0.14294 0.07515 0.00000
O18 O 0.72696 0.08417 0.15520 0.00000
O19 O 0.77572 0.06385 0.10651 0.00000
C20 C 0.84832 0.14575 0.16408 0.00000
In21 In 0.74698 0.14526 0.14425 0.00000
C22 C 0.71709 0.19682 0.18611 0.00000
C23 C 0.74640 0.05382 0.13288 0.00000
O24 O 0.73818 0.16080 0.08428 0.00000
O25 O 0.67461 0.12379 0.10600 0.00000
O26 O 0.89351 0.87036 0.17619 0.00000
O27 O 0.87853 0.81063 0.15257 0.00000
O28 O 0.80428 0.82934 0.21866 0.00000
O29 O 0.76645 0.79029 0.16937 0.00000
C30 C 0.76285 0.90328 0.15564 0.00000
O31 O 0.80092 0.82846 0.09871 0.00000
O32 O 0.85795 0.88530 0.08363 0.00000
C33 C 0.91560 0.83919 0.16797 0.00000
In34 In 0.81455 0.84291 0.16047 0.00000
C35 C 0.77341 0.79609 0.20780 0.00000
C36 C 0.82679 0.85398 0.07093 0.00000
O37 O 0.80956 0.90201 0.17659 0.00000
O38 O 0.74748 0.86979 0.13498 0.00000
O39 O 0.10649 0.82381 0.12964 0.00000
O40 O 0.12147 0.84743 0.18937 0.00000
O41 O 0.19573 0.78134 0.17066 0.00000
O42 O 0.23355 0.83063 0.20971 0.00000
C43 C 0.23715 0.84436 0.09672 0.00000
O44 O 0.19908 0.90129 0.17153 0.00000
O45 O 0.14206 0.91637 0.11470 0.00000
C46 C 0.08440 0.83203 0.16081 0.00000
In47 In 0.18545 0.83953 0.15709 0.00000
C48 C 0.22660 0.79220 0.20391 0.00000
C49 C 0.17321 0.92907 0.14602 0.00000
O50 O 0.19044 0.82341 0.09799 0.00000
O51 O 0.25252 0.86502 0.13021 0.00000
O52 O 0.13925 0.15523 0.10944 0.00000
O53 O 0.21500 0.13967 0.13256 0.00000
O54 O 0.17379 0.20559 0.18647 0.00000
O55 O 0.21552 0.16239 0.21838 0.00000
C56 C 0.06274 0.13436 0.19199 0.00000
O57 O 0.17063 0.08583 0.17827 0.00000
O58 O 0.10785 0.06180 0.12262 0.00000
C59 C 0.18617 0.15033 0.10071 0.00000
In60 In 0.15639 0.14535 0.17064 0.00000
C61 C 0.21055 0.19988 0.21550 0.00000
C62 C 0.14189 0.05402 0.15121 0.00000
O63 O 0.07642 0.15409 0.16113 0.00000
O64 O 0.10330 0.11842 0.20922 0.00000
O65 O 0.86075 0.89056 0.84477 0.00000
O66 O 0.78500 0.86744 0.86033 0.00000
O67 O 0.82621 0.81353 0.79441 0.00000
O68 O 0.78449 0.78162 0.83761 0.00000
C69 C 0.93726 0.80800 0.86564 0.00000
O70 O 0.82937 0.82173 0.91417 0.00000
O71 O 0.89215 0.87738 0.93820 0.00000
C72 C 0.81383 0.89929 0.84966 0.00000
In73 In 0.84361 0.82936 0.85465 0.00000
C74 C 0.78945 0.78450 0.80012 0.00000
C75 C 0.85811 0.84879 0.94598 0.00000
O76 O 0.92358 0.83887 0.84591 0.00000
O77 O 0.89670 0.79078 0.88158 0.00000
O78 O 0.17562 0.87062 0.84497 0.00000
O79 O 0.18748 0.81333 0.86665 0.00000
O80 O 0.25430 0.84230 0.79502 0.00000
O81 O 0.29417 0.81005 0.84136 0.00000
C82 C 0.31088 0.92485 0.85706 0.00000
O83 O 0.27304 0.84480 0.91584 0.00000
O84 O 0.22427 0.89349 0.93616 0.00000
C85 C 0.15168 0.83592 0.85425 0.00000
In86 In 0.25302 0.85575 0.85474 0.00000
C87 C 0.28291 0.81389 0.80318 0.00000
C88 C 0.25359 0.86712 0.94618 0.00000
O89 O 0.26182 0.91572 0.83920 0.00000
O90 O 0.32539 0.89400 0.87621 0.00000
O91 O 0.20425 0.09860 0.84469 0.00000
O92 O 0.28153 0.12516 0.87149 0.00000
O93 O 0.22781 0.17458 0.79892 0.00000
O94 O 0.27343 0.20947 0.84863 0.00000
C95 C 0.12364 0.17808 0.85455 0.00000
O96 O 0.24016 0.17061 0.91932 0.00000
O97 O 0.18319 0.11373 0.93438 0.00000
C98 C 0.25308 0.09202 0.85651 0.00000
In99 In 0.21876 0.16033 0.85717 0.00000
C100 C 0.26389 0.20506 0.81007 0.00000
C101 C 0.21679 0.14374 0.94722 0.00000
O102 O 0.13713 0.14733 0.83664 0.00000
O103 O 0.16564 0.19739 0.87657 0.00000
O104 O 0.68004 0.59694 0.32305 0.00000
O105 O 0.75732 0.62188 0.35133 0.00000
O106 O 0.70717 0.67377 0.27939 0.00000
O107 O 0.75241 0.70704 0.33026 0.00000
C108 C 0.60160 0.67766 0.33354 0.00000
O109 O 0.71600 0.66708 0.39943 0.00000
O110 O 0.65693 0.61056 0.41247 0.00000
C111 C 0.72830 0.58937 0.33531 0.00000
In112 In 0.69605 0.65839 0.33701 0.00000
C113 C 0.74382 0.70357 0.29162 0.00000
C114 C 0.69105 0.63989 0.42634 0.00000
O115 O 0.61466 0.64699 0.31521 0.00000
O116 O 0.64354 0.69594 0.35644 0.00000
O117 O 0.31996 0.67695 0.40306 0.00000
O118 O 0.24268 0.64867 0.37812 0.00000
O119 O 0.29283 0.72061 0.32623 0.00000
O120 O 0.24759 0.66974 0.29296 0.00000
C121 C 0.39840 0.66646 0.32234 0.00000
O122 O 0.28400 0.60057 0.33292 0.00000
O123 O 0.34307 0.58753 0.38944 0.00000
C124 C 0.27170 0.66469 0.41063 0.00000
In125 In 0.30394 0.66299 0.34161 0.00000
C126 C 0.25617 0.70837 0.29643 0.00000
C127 C 0.30895 0.57366 0.36011 0.00000
O128 O 0.38534 0.68479 0.35301 0.00000
O129 O 0.35645 0.64355 0.30406 0.00000
O130 O 0.42955 0.34224 0.36631 0.00000
O131 O 0.41135 0.36277 0.30749 0.00000
O132 O 0.33518 0.28279 0.32742 0.00000
O133 O 0.29728 0.32507 0.29109 0.00000
C134 C 0.30322 0.33906 0.40538 0.00000
O135 O 0.33852 0.40273 0.33019 0.00000
O136 O 0.40052 0.42884 0.38551 0.00000
C137 C 0.44958 0.35433 0.33428 0.00000
In138 In 0.34973 0.34328 0.34236 0.00000
C139 C 0.30249 0.28777 0.29552 0.00000
C140 C 0.36780 0.43562 0.35563 0.00000
O141 O 0.34843 0.32660 0.40158 0.00000
O142 O 0.28649 0.35674 0.37290 0.00000
O143 O 0.57045 0.63369 0.65776 0.00000
O144 O 0.58865 0.69251 0.63723 0.00000
O145 O 0.66482 0.67258 0.71722 0.00000
O146 O 0.70272 0.70891 0.67493 0.00000
C147 C 0.69678 0.59462 0.66094 0.00000
O148 O 0.66148 0.66981 0.59727 0.00000
O149 O 0.59948 0.61449 0.57116 0.00000
C150 C 0.55042 0.66573 0.64567 0.00000
In151 In 0.65027 0.65764 0.65672 0.00000
C152 C 0.69751 0.70448 0.71223 0.00000
C153 C 0.63220 0.64437 0.56438 0.00000
O154 O 0.65157 0.59842 0.67340 0.00000
O155 O 0.71350 0.62710 0.64326 0.00000
O156 O 0.32172 0.66961 0.61041 0.00000
O157 O 0.31039 0.64464 0.66651 0.00000
O158 O 0.24273 0.71701 0.64214 0.00000
O159 O 0.20345 0.66850 0.67211 0.00000
C160 C 0.18620 0.65905 0.55678 0.00000
O161 O 0.22506 0.59634 0.63310 0.00000
O162 O 0.27372 0.57932 0.58294 0.00000
C163 C 0.34595 0.65868 0.64433 0.00000
In164 In 0.24447 0.65816 0.62539 0.00000
C165 C 0.21436 0.70695 0.67030 0.00000
C166 C 0.24464 0.56752 0.60896 0.00000
O167 O 0.23517 0.67691 0.56645 0.00000
O168 O 0.17204 0.63805 0.58664 0.00000
O169 O 0.36844 0.36408 0.65457 0.00000
O170 O 0.35658 0.30399 0.63215 0.00000
O171 O 0.28057 0.32153 0.69740 0.00000
O172 O 0.24483 0.28097 0.64876 0.00000
C173 C 0.23551 0.39291 0.63262 0.00000
O174 O 0.27796 0.31879 0.57752 0.00000
O175 O 0.33247 0.37658 0.56155 0.00000
C176 C 0.39229 0.33360 0.64714 0.00000
In177 In 0.29055 0.33443 0.63901 0.00000
C178 C 0.25130 0.28749 0.68708 0.00000
C179 C 0.30282 0.34443 0.54936 0.00000
O180 O 0.28242 0.39324 0.65384 0.00000
O181 O 0.22190 0.35892 0.61260 0.00000
O182 O 0.63156 0.34543 0.63592 0.00000
O183 O 0.64342 0.36785 0.69601 0.00000
O184 O 0.71943 0.30260 0.67847 0.00000
O185 O 0.75517 0.35124 0.71903 0.00000
C186 C 0.76449 0.36738 0.60709 0.00000
O187 O 0.72204 0.42248 0.68121 0.00000
O188 O 0.66753 0.43845 0.62342 0.00000
C189 C 0.60771 0.35286 0.66640 0.00000
In190 In 0.70945 0.36099 0.66557 0.00000
C191 C 0.74870 0.31292 0.71251 0.00000
C192 C 0.69718 0.45064 0.65557 0.00000
O193 O 0.71759 0.34616 0.60676 0.00000
O194 O 0.77810 0.38740 0.64108 0.00000
O195 O 0.67828 0.38959 0.33039 0.00000
O196 O 0.68961 0.33349 0.35536 0.00000
O197 O 0.75727 0.35785 0.28299 0.00000
O198 O 0.79655 0.32789 0.33150 0.00000
C199 C 0.81380 0.44322 0.34095 0.00000
O200 O 0.77495 0.36690 0.40366 0.00000
O201 O 0.72628 0.41706 0.42067 0.00000
C202 C 0.65405 0.35567 0.34132 0.00000
In203 In 0.75554 0.37461 0.34184 0.00000
C204 C 0.78564 0.32970 0.29305 0.00000
C205 C 0.75536 0.39104 0.43248 0.00000
O206 O 0.76483 0.43354 0.32308 0.00000
O207 O 0.82796 0.41336 0.36195 0.00000
C208 C 0.68822 0.29230 0.73393 0.00000
C209 C 0.74121 0.28394 0.73118 0.00000
C210 C 0.75896 0.25090 0.75189 0.00000
C211 C 0.72380 0.22735 0.77475 0.00000
C212 C 0.67153 0.23720 0.77494 0.00000
H213 H 0.67644 0.31505 0.72041 0.00000
H214 H 0.79416 0.24444 0.75059 0.00000
H215 H 0.64776 0.22068 0.78969 0.00000
N216 N 0.65312 0.26907 0.75516 0.00000
C217 C 0.77303 0.33266 0.20886 0.00000
C218 C 0.76815 0.30935 0.24382 0.00000
C219 C 0.74901 0.26785 0.23847 0.00000
C220 C 0.73516 0.25084 0.19873 0.00000
C221 C 0.74258 0.27598 0.16590 0.00000
H222 H 0.78520 0.36090 0.21243 0.00000
H223 H 0.74540 0.25138 0.26125 0.00000
H224 H 0.73425 0.26411 0.13931 0.00000
N225 N 0.76105 0.31635 0.17010 0.00000
C226 C 0.69913 0.79455 0.24187 0.00000
C227 C 0.75299 0.78871 0.23862 0.00000
C228 C 0.76935 0.75151 0.24985 0.00000
C229 C 0.73196 0.72140 0.26407 0.00000
C230 C 0.67906 0.72942 0.26532 0.00000
H231 H 0.68824 0.81998 0.23486 0.00000
H232 H 0.80509 0.74660 0.24794 0.00000
H233 H 0.65386 0.70868 0.27409 0.00000
N234 N 0.66196 0.76521 0.25463 0.00000
C235 C 0.16464 0.75136 0.21542 0.00000
C236 C 0.22029 0.76657 0.21674 0.00000
C237 C 0.25700 0.75533 0.24864 0.00000
C238 C 0.23744 0.72957 0.27824 0.00000
C239 C 0.18187 0.71513 0.27398 0.00000
H240 H 0.13962 0.75946 0.19416 0.00000
H241 H 0.29453 0.76490 0.25034 0.00000
H242 H 0.16923 0.69713 0.29355 0.00000
N243 N 0.14522 0.72549 0.24338 0.00000
C244 C 0.30189 0.30164 0.25311 0.00000
C245 C 0.28681 0.27093 0.28012 0.00000
C246 C 0.24993 0.23712 0.26459 0.00000
C247 C 0.22904 0.23489 0.22293 0.00000
C248 C 0.24726 0.26620 0.19822 0.00000
H249 H 0.32625 0.32487 0.26372 0.00000
H250 H 0.23911 0.21598 0.28185 0.00000
H251 H 0.23388 0.26402 0.17008 0.00000
N252 N 0.28301 0.29940 0.21238 0.00000
C253 C 0.72631 0.80206 0.76828 0.00000
C254 C 0.76670 0.77640 0.77597 0.00000
C255 C 0.75532 0.73665 0.75981 0.00000
C256 C 0.70434 0.72356 0.73675 0.00000
C257 C 0.66730 0.75133 0.72981 0.00000
H258 H 0.73366 0.82882 0.77973 0.00000
H259 H 0.78154 0.71874 0.76432 0.00000
H260 H 0.63355 0.74252 0.71354 0.00000
N261 N 0.67713 0.79010 0.74506 0.00000
C262 C 0.27095 0.71172 0.71586 0.00000
C263 C 0.23304 0.73842 0.70360 0.00000
C264 C 0.23806 0.77560 0.72480 0.00000
C265 C 0.28025 0.78505 0.75751 0.00000
C266 C 0.31677 0.75725 0.76690 0.00000
H267 H 0.26709 0.68625 0.70192 0.00000
H268 H 0.21342 0.79419 0.71729 0.00000
H269 H 0.34571 0.76424 0.78838 0.00000
N270 N 0.31297 0.72093 0.74690 0.00000
C271 C 0.31965 0.25644 0.79813 0.00000
C272 C 0.27053 0.23172 0.78229 0.00000
C273 C 0.24195 0.24247 0.74586 0.00000
C274 C 0.26279 0.27738 0.72641 0.00000
C275 C 0.31240 0.29949 0.74373 0.00000
H276 H 0.33863 0.24954 0.82313 0.00000
H277 H 0.20901 0.22650 0.73440 0.00000
H278 H 0.32669 0.32242 0.72999 0.00000
N279 N 0.34109 0.28984 0.77904 0.00000
C280 C 0.78006 0.01127 0.90006 0.00000
C281 C 0.78204 0.01035 0.85774 0.00000
C282 C 0.78375 0.97306 0.83852 0.00000
C283 C 0.78365 0.93797 0.86181 0.00000
C284 C 0.78023 0.94152 0.90336 0.00000
H285 H 0.77974 0.03662 0.91324 0.00000
H286 H 0.78496 0.97139 0.81020 0.00000
H287 H 0.77901 0.91763 0.91863 0.00000
N288 N 0.77853 0.97727 0.92289 0.00000
C289 C 0.01328 0.17898 0.22112 0.00000
C290 C 0.00258 0.14146 0.19887 0.00000
C291 C 0.94913 0.12723 0.18204 0.00000
C292 C 0.90806 0.15050 0.18790 0.00000
C293 C 0.92252 0.18779 0.20947 0.00000
H294 H 0.04936 0.18836 0.23306 0.00000
H295 H 0.94063 0.10227 0.16690 0.00000
H296 H 0.89480 0.20364 0.21253 0.00000
N297 N 0.97401 0.20242 0.22617 0.00000
C298 C 0.70673 0.94159 0.19097 0.00000
C299 C 0.73861 0.94282 0.15906 0.00000
C300 C 0.74943 0.97953 0.13976 0.00000
C301 C 0.72819 0.01373 0.15256 0.00000
C302 C 0.69819 0.01003 0.18509 0.00000
H303 H 0.69867 0.91658 0.20366 0.00000
H304 H 0.77076 0.98138 0.11836 0.00000
H305 H 0.68503 0.03341 0.19406 0.00000
N306 N 0.68699 0.97483 0.20443 0.00000
C307 C 0.94761 0.78601 0.12955 0.00000
C308 C 0.94923 0.81569 0.16075 0.00000
C309 C 0.99990 0.83660 0.17771 0.00000
C310 C 0.04665 0.82735 0.16335 0.00000
C311 C 0.04113 0.79825 0.13165 0.00000
H312 H 0.91358 0.77138 0.11846 0.00000
H313 H 0.00206 0.85671 0.19858 0.00000
H314 H 0.07289 0.79285 0.12159 0.00000
N315 N 0.99284 0.77744 0.11457 0.00000
C316 C 0.22113 0.04911 0.15794 0.00000
C317 C 0.16657 0.03096 0.15669 0.00000
C318 C 0.15539 0.98862 0.15686 0.00000
C319 C 0.19850 0.96565 0.15810 0.00000
C320 C 0.25141 0.98619 0.16032 0.00000
H321 H 0.22867 0.07777 0.15720 0.00000
H322 H 0.11932 0.97553 0.15615 0.00000
H323 H 0.28026 0.97053 0.16202 0.00000
N324 N 0.26357 0.02723 0.16020 0.00000
C325 C 0.98584 0.79598 0.81325 0.00000
C326 C 0.99686 0.80411 0.85571 0.00000
C327 C 0.05080 0.81443 0.87350 0.00000
C328 C 0.09204 0.81621 0.84873 0.00000
C329 C 0.07735 0.80871 0.80682 0.00000
H330 H 0.94935 0.78838 0.80125 0.00000
H331 H 0.05953 0.82015 0.90183 0.00000
H332 H 0.10527 0.81082 0.79028 0.00000
N333 N 0.02537 0.79862 0.78865 0.00000
C334 C 0.27404 0.91101 0.99546 0.00000
C335 C 0.27218 0.86885 0.98765 0.00000
C336 C 0.25828 0.84205 0.01775 0.00000
C337 C 0.24690 0.85784 0.05460 0.00000
C338 C 0.24838 0.89992 0.05931 0.00000
H339 H 0.28426 0.92924 0.97533 0.00000
H340 H 0.25654 0.81365 0.01344 0.00000
H341 H 0.23954 0.91020 0.08385 0.00000
N342 N 0.26173 0.92671 0.03068 0.00000
C343 C 0.62346 0.11717 0.00194 0.00000
C344 C 0.67735 0.13410 0.01735 0.00000
C345 C 0.71392 0.14379 0.98981 0.00000
C346 C 0.69604 0.13625 0.94798 0.00000
C347 C 0.64162 0.12037 0.93535 0.00000
H348 H 0.59886 0.11002 0.02061 0.00000
H349 H 0.75025 0.15525 0.99990 0.00000
H350 H 0.62966 0.11621 0.90711 0.00000
N351 N 0.60515 0.11065 0.96132 0.00000
C352 C 0.89750 0.81089 0.99660 0.00000
C353 C 0.85393 0.82987 0.97781 0.00000
C354 C 0.82002 0.84481 0.00243 0.00000
C355 C 0.83021 0.84035 0.04476 0.00000
C356 C 0.87508 0.82209 0.06085 0.00000
H357 H 0.92001 0.80020 0.97990 0.00000
H358 H 0.79058 0.85776 0.99081 0.00000
H359 H 0.88230 0.82000 0.08942 0.00000
N360 N 0.90872 0.80728 0.03776 0.00000
C361 C 0.15177 0.14442 0.97899 0.00000
C362 C 0.20854 0.15557 0.98871 0.00000
C363 C 0.23179 0.15560 0.02940 0.00000
C364 C 0.19810 0.14477 0.05912 0.00000
C365 C 0.14250 0.13316 0.04664 0.00000
H366 H 0.13585 0.14499 0.95150 0.00000
H367 H 0.26968 0.16281 0.03691 0.00000
H368 H 0.12032 0.12509 0.06674 0.00000
N369 N 0.11872 0.13283 0.00740 0.00000
C370 C 0.71093 0.68956 0.54851 0.00000
C371 C 0.66397 0.66266 0.53218 0.00000
C372 C 0.66119 0.64625 0.49294 0.00000
C373 C 0.70484 0.65712 0.47111 0.00000
C374 C 0.75032 0.68315 0.49003 0.00000
H375 H 0.71252 0.70119 0.57486 0.00000
H376 H 0.63038 0.62808 0.48118 0.00000
H377 H 0.77996 0.68960 0.47545 0.00000
N378 N 0.75423 0.69957 0.52806 0.00000
C379 C 0.28853 0.64004 0.47434 0.00000
C380 C 0.24201 0.65189 0.45120 0.00000
C381 C 0.20055 0.66178 0.47166 0.00000
C382 C 0.20639 0.65946 0.51429 0.00000
C383 C 0.25443 0.64843 0.53483 0.00000
H384 H 0.31630 0.63273 0.46045 0.00000
H385 H 0.16894 0.66992 0.45707 0.00000
H386 H 0.25850 0.64779 0.56356 0.00000
N387 N 0.29538 0.63865 0.51584 0.00000
C388 C 0.24756 0.29222 0.43446 0.00000
C389 C 0.28317 0.32941 0.43983 0.00000
C390 C 0.30074 0.34519 0.47934 0.00000
C391 C 0.28235 0.32375 0.51217 0.00000
C392 C 0.24823 0.28664 0.50411 0.00000
H393 H 0.23496 0.28181 0.40767 0.00000
H394 H 0.32469 0.36997 0.48397 0.00000
H395 H 0.23698 0.27199 0.52643 0.00000
N396 N 0.23046 0.27053 0.46612 0.00000
C397 C 0.47129 0.69636 0.59615 0.00000
C398 C 0.49172 0.68266 0.63461 0.00000
C399 C 0.45477 0.66476 0.65909 0.00000
C400 C 0.39889 0.66116 0.64478 0.00000
C401 C 0.38233 0.67462 0.60588 0.00000
H402 H 0.49625 0.70906 0.57979 0.00000
H403 H 0.46714 0.65519 0.68495 0.00000
H404 H 0.34471 0.67129 0.59616 0.00000
N405 N 0.41718 0.69212 0.58141 0.00000
C406 C 0.27678 0.52831 0.66329 0.00000
C407 C 0.24226 0.52053 0.62577 0.00000
C408 C 0.22132 0.48025 0.61423 0.00000
C409 C 0.23539 0.44902 0.64010 0.00000
C410 C 0.26872 0.45958 0.67716 0.00000
H411 H 0.29166 0.55554 0.67085 0.00000
H412 H 0.19799 0.47403 0.58935 0.00000
H413 H 0.27703 0.43844 0.69476 0.00000
N414 N 0.28968 0.49837 0.68921 0.00000
C415 C 0.46010 0.27699 0.66271 0.00000
C416 C 0.45171 0.31788 0.65717 0.00000
C417 C 0.49696 0.34799 0.66148 0.00000
C418 C 0.54896 0.33666 0.67127 0.00000
C419 C 0.55358 0.29536 0.67519 0.00000
H420 H 0.42942 0.25663 0.66041 0.00000
H421 H 0.49273 0.37563 0.65787 0.00000
H422 H 0.58877 0.28794 0.68092 0.00000
N423 N 0.51045 0.26543 0.67120 0.00000
C424 C 0.77479 0.56806 0.66709 0.00000
C425 C 0.71747 0.56003 0.66052 0.00000
C426 C 0.69271 0.51980 0.66144 0.00000
C427 C 0.72545 0.48887 0.66867 0.00000
C428 C 0.78185 0.49970 0.67588 0.00000
H429 H 0.79164 0.59524 0.66586 0.00000
H430 H 0.65443 0.51341 0.65725 0.00000
H431 H 0.80352 0.47880 0.68158 0.00000
N432 N 0.80709 0.53845 0.67519 0.00000
C433 C 0.57246 0.29177 0.34854 0.00000
C434 C 0.59310 0.33189 0.33936 0.00000
C435 C 0.55655 0.35952 0.33001 0.00000
C436 C 0.50083 0.34650 0.32991 0.00000
C437 C 0.48412 0.30650 0.34038 0.00000
H438 H 0.59710 0.27285 0.35427 0.00000
H439 H 0.56907 0.38663 0.32382 0.00000
H440 H 0.44670 0.29826 0.34108 0.00000
N441 N 0.51859 0.27898 0.34958 0.00000
C442 C 0.74367 0.46411 0.31849 0.00000
C443 C 0.79613 0.48557 0.33118 0.00000
C444 C 0.80102 0.52691 0.34146 0.00000
C445 C 0.75390 0.54568 0.33869 0.00000
C446 C 0.70350 0.52187 0.32683 0.00000
H447 H 0.74037 0.43624 0.31092 0.00000
H448 H 0.83555 0.54212 0.35017 0.00000
H449 H 0.67194 0.53455 0.32589 0.00000
N450 N 0.69742 0.48169 0.31665 0.00000
C451 C 0.45253 0.71158 0.29036 0.00000
C452 C 0.44987 0.67698 0.31476 0.00000
C453 C 0.49836 0.66403 0.33158 0.00000
C454 C 0.54782 0.68562 0.32359 0.00000
C455 C 0.54669 0.72015 0.29994 0.00000
H456 H 0.41967 0.72002 0.27843 0.00000
H457 H 0.49798 0.64103 0.34814 0.00000
H458 H 0.58018 0.73499 0.29544 0.00000
N459 N 0.50031 0.73348 0.28319 0.00000
C460 C 0.27761 0.44541 0.33355 0.00000
C461 C 0.33149 0.46573 0.34125 0.00000
C462 C 0.33966 0.50770 0.34891 0.00000
C463 C 0.29429 0.52818 0.34853 0.00000
C464 C 0.24242 0.50549 0.34165 0.00000
H465 H 0.27200 0.41706 0.32774 0.00000
H466 H 0.37523 0.52219 0.35427 0.00000
H467 H 0.21218 0.51939 0.34232 0.00000
N468 N 0.23317 0.46474 0.33412 0.00000
C469 C 0.76301 0.42249 0.56152 0.00000
C470 C 0.76538 0.38052 0.55617 0.00000
C471 C 0.77069 0.36581 0.51762 0.00000
C472 C 0.77327 0.39307 0.48563 0.00000
C473 C 0.77200 0.43431 0.49391 0.00000
H474 H 0.75857 0.43239 0.58748 0.00000
H475 H 0.77252 0.33789 0.51305 0.00000
H476 H 0.77493 0.45256 0.47242 0.00000
N477 N 0.76687 0.44951 0.53098 0.00000
C478 C 0.22642 0.02947 0.87871 0.00000
C479 C 0.27734 0.04596 0.86808 0.00000
C480 C 0.31176 0.01920 0.85784 0.00000
C481 C 0.29477 0.97705 0.85859 0.00000
C482 C 0.24313 0.96341 0.86847 0.00000
H483 H 0.20340 0.04757 0.88626 0.00000
H484 H 0.34606 0.02927 0.85049 0.00000
H485 H 0.23158 0.93502 0.86806 0.00000
N486 N 0.20880 0.98861 0.87856 0.00000
C487 C 0.94836 0.14432 0.88247 0.00000
C488 C 0.94911 0.15612 0.84177 0.00000
C489 C 0.99990 0.16621 0.82831 0.00000
C490 C 0.04697 0.16445 0.85557 0.00000
C491 C 0.04241 0.15144 0.89500 0.00000
H492 H 0.91442 0.13807 0.89181 0.00000
H493 H 0.00115 0.17414 0.80122 0.00000
H494 H 0.07469 0.14952 0.91287 0.00000
N495 N 0.99435 0.14145 0.90898 0.00000
loop_
_geom_bond_atom_site_label_1
_geom_bond_atom_site_label_2
_geom_bond_distance
_geom_bond_site_symmetry_2
_ccdc_geom_bond_type
O0 C7 1.263 . A
O0 In8 2.023 . S
O1 C7 1.258 . A
O1 In8 2.063 . S
O2 In8 1.999 . S
O2 C9 1.253 . A
O3 In8 1.997 . S
O3 C9 1.251 . A
C4 O11 1.263 . A
C4 O12 1.260 . A
O5 In8 2.035 . S
O5 C10 1.399 . S
O6 C10 1.220 . D
In8 O11 2.019 . S
In8 O12 2.062 . S
O13 C20 1.263 . A
O13 In21 2.023 . S
O14 C20 1.258 . A
O14 In21 2.063 . S
O15 In21 1.999 . S
O15 C22 1.253 . A
O16 In21 1.997 . S
O16 C22 1.251 . A
C17 O24 1.263 . A
C17 O25 1.260 . A
O18 In21 2.035 . S
O18 C23 1.399 . S
O19 C23 1.220 . D
In21 O24 2.019 . S
In21 O25 2.062 . S
O26 C33 1.263 . A
O26 In34 2.023 . S
O27 C33 1.258 . A
O27 In34 2.063 . S
O28 In34 1.999 . S
O28 C35 1.253 . A
O29 In34 1.997 . S
O29 C35 1.251 . A
C30 O37 1.263 . A
C30 O38 1.260 . A
O31 In34 2.035 . S
O31 C36 1.399 . S
O32 C36 1.220 . D
In34 O37 2.019 . S
In34 O38 2.062 . S
O39 C46 1.263 . A
O39 In47 2.023 . S
O40 C46 1.258 . A
O40 In47 2.063 . S
O41 In47 1.999 . S
O41 C48 1.253 . A
O42 In47 1.997 . S
O42 C48 1.251 . A
C43 O50 1.263 . A
C43 O51 1.260 . A
O44 In47 2.035 . S
O44 C49 1.399 . S
O45 C49 1.220 . D
In47 O50 2.019 . S
In47 O51 2.062 . S
O52 C59 1.263 . A
O52 In60 2.023 . S
O53 C59 1.258 . A
O53 In60 2.063 . S
O54 In60 1.999 . S
O54 C61 1.253 . A
O55 In60 1.997 . S
O55 C61 1.251 . A
C56 O63 1.263 . A
C56 O64 1.260 . A
O57 In60 2.035 . S
O57 C62 1.399 . S
O58 C62 1.220 . D
In60 O63 2.019 . S
In60 O64 2.062 . S
O65 C72 1.263 . A
O65 In73 2.023 . S
O66 C72 1.258 . A
O66 In73 2.063 . S
O67 In73 1.999 . S
O67 C74 1.253 . A
O68 In73 1.997 . S
O68 C74 1.251 . A
C69 O76 1.263 . A
C69 O77 1.260 . A
O70 In73 2.035 . S
O70 C75 1.399 . S
O71 C75 1.220 . D
In73 O76 2.019 . S
In73 O77 2.062 . S
O78 C85 1.263 . A
O78 In86 2.023 . S
O79 C85 1.258 . A
O79 In86 2.063 . S
O80 In86 1.999 . S
O80 C87 1.253 . A
O81 In86 1.997 . S
O81 C87 1.251 . A
C82 O89 1.263 . A
C82 O90 1.260 . A
O83 In86 2.035 . S
O83 C88 1.399 . S
O84 C88 1.220 . D
In86 O89 2.019 . S
In86 O90 2.062 . S
O91 C98 1.263 . A
O91 In99 2.023 . S
O92 C98 1.258 . A
O92 In99 2.063 . S
O93 In99 1.999 . S
O93 C100 1.253 . A
O94 In99 1.997 . S
O94 C100 1.251 . A
C95 O102 1.263 . A
C95 O103 1.260 . A
O96 In99 2.035 . S
O96 C101 1.399 . S
O97 C101 1.220 . D
In99 O102 2.019 . S
In99 O103 2.062 . S
O104 C111 1.263 . A
O104 In112 2.023 . S
O105 C111 1.258 . A
O105 In112 2.063 . S
O106 In112 1.999 . S
O106 C113 1.253 . A
O107 In112 1.997 . S
O107 C113 1.251 . A
C108 O115 1.263 . A
C108 O116 1.260 . A
O109 In112 2.035 . S
O109 C114 1.399 . S
O110 C114 1.220 . D
In112 O115 2.019 . S
In112 O116 2.062 . S
O117 C124 1.263 . A
O117 In125 2.023 . S
O118 C124 1.258 . A
O118 In125 2.063 . S
O119 In125 1.999 . S
O119 C126 1.253 . A
O120 In125 1.997 . S
O120 C126 1.251 . A
C121 O128 1.263 . A
C121 O129 1.260 . A
O122 In125 2.035 . S
O122 C127 1.399 . S
O123 C127 1.220 . D
In125 O128 2.019 . S
In125 O129 2.062 . S
O130 C137 1.263 . A
O130 In138 2.023 . S
O131 C137 1.258 . A
O131 In138 2.063 . S
O132 In138 1.999 . S
O132 C139 1.253 . A
O133 In138 1.997 . S
O133 C139 1.251 . A
C134 O141 1.263 . A
C134 O142 1.260 . A
O135 In138 2.035 . S
O135 C140 1.399 . S
O136 C140 1.220 . D
In138 O141 2.019 . S
In138 O142 2.062 . S
O143 C150 1.263 . A
O143 In151 2.023 . S
O144 C150 1.258 . A
O144 In151 2.063 . S
O145 In151 1.999 . S
O145 C152 1.253 . A
O146 In151 1.997 . S
O146 C152 1.251 . A
C147 O154 1.263 . A
C147 O155 1.260 . A
O148 In151 2.035 . S
O148 C153 1.399 . S
O149 C153 1.220 . D
In151 O154 2.019 . S
In151 O155 2.062 . S
O156 C163 1.263 . A
O156 In164 2.023 . S
O157 C163 1.258 . A
O157 In164 2.063 . S
O158 In164 1.999 . S
O158 C165 1.253 . A
O159 In164 1.997 . S
O159 C165 1.251 . A
C160 O167 1.263 . A
C160 O168 1.260 . A
O161 In164 2.035 . S
O161 C166 1.399 . S
O162 C166 1.220 . D
In164 O167 2.019 . S
In164 O168 2.062 . S
O169 C176 1.263 . A
O169 In177 2.023 . S
O170 C176 1.258 . A
O170 In177 2.063 . S
O171 In177 1.999 . S
O171 C178 1.253 . A
O172 In177 1.997 . S
O172 C178 1.251 . A
C173 O180 1.263 . A
C173 O181 1.260 . A
O174 In177 2.035 . S
O174 C179 1.399 . S
O175 C179 1.220 . D
In177 O180 2.019 . S
In177 O181 2.062 . S
O182 C189 1.263 . A
O182 In190 2.023 . S
O183 C189 1.258 . A
O183 In190 2.063 . S
O184 In190 1.999 . S
O184 C191 1.253 . A
O185 In190 1.997 . S
O185 C191 1.251 . A
C186 O193 1.263 . A
C186 O194 1.260 . A
O187 In190 2.035 . S
O187 C192 1.399 . S
O188 C192 1.220 . D
In190 O193 2.019 . S
In190 O194 2.062 . S
O195 C202 1.263 . A
O195 In203 2.023 . S
O196 C202 1.258 . A
O196 In203 2.063 . S
O197 In203 1.999 . S
O197 C204 1.253 . A
O198 In203 1.997 . S
O198 C204 1.251 . A
C199 O206 1.263 . A
C199 O207 1.260 . A
O200 In203 2.035 . S
O200 C205 1.399 . S
O201 C205 1.220 . D
In203 O206 2.019 . S
In203 O207 2.062 . S
C208 C209 1.390 . A
C208 H213 0.930 . S
C208 N216 1.344 . A
C209 C210 1.372 . A
C210 C211 1.383 . A
C210 H214 0.930 . S
C211 C212 1.376 . A
C212 H215 0.930 . S
C212 N216 1.332 . A
C217 C218 1.390 . A
C217 H222 0.930 . S
C217 N225 1.344 . A
C218 C219 1.372 . A
C219 C220 1.383 . A
C219 H223 0.930 . S
C220 C221 1.376 . A
C221 H224 0.930 . S
C221 N225 1.332 . A
C226 C227 1.390 . A
C226 H231 0.930 . S
C226 N234 1.344 . A
C227 C228 1.372 . A
C228 C229 1.383 . A
C228 H232 0.930 . S
C229 C230 1.376 . A
C230 H233 0.930 . S
C230 N234 1.332 . A
C235 C236 1.390 . A
C235 H240 0.930 . S
C235 N243 1.344 . A
C236 C237 1.372 . A
C237 C238 1.383 . A
C237 H241 0.930 . S
C238 C239 1.376 . A
C239 H242 0.930 . S
C239 N243 1.332 . A
C244 C245 1.390 . A
C244 H249 0.930 . S
C244 N252 1.344 . A
C245 C246 1.372 . A
C246 C247 1.383 . A
C246 H250 0.930 . S
C247 C248 1.376 . A
C248 H251 0.930 . S
C248 N252 1.332 . A
C253 C254 1.390 . A
C253 H258 0.930 . S
C253 N261 1.344 . A
C254 C255 1.372 . A
C255 C256 1.383 . A
C255 H259 0.930 . S
C256 C257 1.376 . A
C257 H260 0.930 . S
C257 N261 1.332 . A
C262 C263 1.390 . A
C262 H267 0.930 . S
C262 N270 1.344 . A
C263 C264 1.372 . A
C264 C265 1.383 . A
C264 H268 0.930 . S
C265 C266 1.376 . A
C266 H269 0.930 . S
C266 N270 1.332 . A
C271 C272 1.390 . A
C271 H276 0.930 . S
C271 N279 1.344 . A
C272 C273 1.372 . A
C273 C274 1.383 . A
C273 H277 0.930 . S
C274 C275 1.376 . A
C275 H278 0.930 . S
C275 N279 1.332 . A
C280 C281 1.390 . A
C280 H285 0.930 . S
C280 N288 1.344 1_545 A
C281 C282 1.372 1_545 A
C282 C283 1.383 . A
C282 H286 0.930 . S
C283 C284 1.376 . A
C284 H287 0.930 . S
C284 N288 1.332 . A
C289 C290 1.390 . A
C289 H294 0.930 . S
C289 N297 1.344 1_455 A
C290 C291 1.372 1_455 A
C291 C292 1.383 . A
C291 H295 0.930 . S
C292 C293 1.376 . A
C293 H296 0.930 . S
C293 N297 1.332 . A
C298 C299 1.390 . A
C298 H303 0.930 . S
C298 N306 1.344 . A
C299 C300 1.372 . A
C300 C301 1.383 1_565 A
C300 H304 0.930 . S
C301 C302 1.376 . A
C302 H305 0.930 . S
C302 N306 1.332 1_545 A
C307 C308 1.390 . A
C307 H312 0.930 . S
C307 N315 1.344 . A
C308 C309 1.378 . A
C309 C310 1.376 1_655 A
C309 H313 0.931 1_655 S
C310 C311 1.376 . A
C311 H314 0.930 . S
C311 N315 1.332 1_455 A
C316 C317 1.390 . A
C316 H321 0.930 . S
C316 N324 1.344 . A
C317 C318 1.372 1_545 A
C318 C319 1.383 . A
C318 H322 0.930 . S
C319 C320 1.376 . A
C320 H323 0.930 . S
C320 N324 1.332 1_565 A
C325 C326 1.390 . A
C325 H330 0.930 . S
C325 N333 1.344 1_655 A
C326 C327 1.372 1_655 A
C327 C328 1.383 . A
C327 H331 0.930 . S
C328 C329 1.376 . A
C329 H332 0.930 . S
C329 N333 1.332 . A
C334 C335 1.390 . A
C334 H339 0.930 . S
C334 N342 1.344 1_556 A
C335 C336 1.372 1_556 A
C336 C337 1.383 . A
C336 H340 0.930 . S
C337 C338 1.376 . A
C338 H341 0.930 . S
C338 N342 1.332 . A
C343 C344 1.390 . A
C343 H348 0.930 . S
C343 N351 1.344 1_554 A
C344 C345 1.372 1_554 A
C345 C346 1.383 . A
C345 H349 0.935 . S
C346 C347 1.376 . A
C347 H350 0.930 . S
C347 N351 1.332 . A
C352 C353 1.390 . A
C352 H357 0.930 . S
C352 N360 1.344 1_556 A
C353 C354 1.372 1_556 A
C354 C355 1.383 . A
C354 H358 0.930 1_554 S
C355 C356 1.376 . A
C356 H359 0.930 . S
C356 N360 1.332 . A
C361 C362 1.390 . A
C361 H366 0.930 . S
C361 N369 1.344 1_556 A
C362 C363 1.372 1_556 A
C363 C364 1.383 . A
C363 H367 0.930 . S
C364 C365 1.376 . A
C365 H368 0.930 . S
C365 N369 1.332 . A
C370 C371 1.390 . A
C370 H375 0.930 . S
C370 N378 1.344 . A
C371 C372 1.372 . A
C372 C373 1.383 . A
C372 H376 0.930 . S
C373 C374 1.376 . A
C374 H377 0.930 . S
C374 N378 1.332 . A
C379 C380 1.390 . A
C379 H384 0.930 . S
C379 N387 1.344 . A
C380 C381 1.372 . A
C381 C382 1.383 . A
C381 H385 0.930 . S
C382 C383 1.376 . A
C383 H386 0.930 . S
C383 N387 1.332 . A
C388 C389 1.390 . A
C388 H393 0.930 . S
C388 N396 1.344 . A
C389 C390 1.372 . A
C390 C391 1.383 . A
C390 H394 0.930 . S
C391 C392 1.376 . A
C392 H395 0.930 . S
C392 N396 1.332 . A
C397 C398 1.390 . A
C397 H402 0.930 . S
C397 N405 1.344 . A
C398 C399 1.372 . A
C399 C400 1.383 . A
C399 H403 0.930 . S
C400 C401 1.376 . A
C401 H404 0.930 . S
C401 N405 1.332 . A
C406 C407 1.390 . A
C406 H411 0.930 . S
C406 N414 1.344 . A
C407 C408 1.372 . A
C408 C409 1.383 . A
C408 H412 0.930 . S
C409 C410 1.376 . A
C410 H413 0.930 . S
C410 N414 1.332 . A
C415 C416 1.390 . A
C415 H420 0.930 . S
C415 N423 1.344 . A
C416 C417 1.372 . A
C417 C418 1.383 . A
C417 H421 0.930 . S
C418 C419 1.376 . A
C419 H422 0.930 . S
C419 N423 1.332 . A
C424 C425 1.390 . A
C424 H429 0.930 . S
C424 N432 1.344 . A
C425 C426 1.372 . A
C426 C427 1.383 . A
C426 H430 0.930 . S
C427 C428 1.376 . A
C428 H431 0.930 . S
C428 N432 1.332 . A
C433 C434 1.390 . A
C433 H438 0.930 . S
C433 N441 1.344 . A
C434 C435 1.372 . A
C435 C436 1.383 . A
C435 H439 0.930 . S
C436 C437 1.376 . A
C437 H440 0.930 . S
C437 N441 1.332 . A
C442 C443 1.390 . A
C442 H447 0.930 . S
C442 N450 1.344 . A
C443 C444 1.372 . A
C444 C445 1.383 . A
C444 H448 0.930 . S
C445 C446 1.376 . A
C446 H449 0.930 . S
C446 N450 1.332 . A
C451 C452 1.390 . A
C451 H456 0.930 . S
C451 N459 1.344 . A
C452 C453 1.372 . A
C453 C454 1.383 . A
C453 H457 0.930 . S
C454 C455 1.376 . A
C455 H458 0.930 . S
C455 N459 1.332 . A
C460 C461 1.390 . A
C460 H465 0.930 . S
C460 N468 1.344 . A
C461 C462 1.372 . A
C462 C463 1.383 . A
C462 H466 0.930 . S
C463 C464 1.376 . A
C464 H467 0.930 . S
C464 N468 1.332 . A
C469 C470 1.390 . A
C469 H474 0.930 . S
C469 N477 1.344 . A
C470 C471 1.372 . A
C471 C472 1.383 . A
C471 H475 0.930 . S
C472 C473 1.376 . A
C473 H476 0.930 . S
C473 N477 1.332 . A
C478 C479 1.390 . A
C478 H483 0.930 . S
C478 N486 1.344 1_545 A
C479 C480 1.372 . A
C480 C481 1.383 1_545 A
C480 H484 0.930 . S
C481 C482 1.376 . A
C482 H485 0.930 . S
C482 N486 1.332 . A
C487 C488 1.390 . A
C487 H492 0.930 . S
C487 N495 1.344 . A
C488 C489 1.386 . A
C489 C490 1.371 1_655 A
C489 H493 0.928 1_655 S
C490 C491 1.376 . A
C491 H494 0.930 . S
C491 N495 1.332 1_455 A
C209 C191 1.140 . S
C211 C9 1.445 . S
C218 C204 1.706 . S
C220 C22 1.786 . S
C227 C35 1.200 . S
C229 C113 1.105 . S
C236 C48 0.944 . S
C238 C126 1.034 . S
C245 C139 0.764 . S
C247 C61 1.179 . S
C254 C74 0.915 . S
C256 C152 0.989 . S
C263 C165 1.466 . S
C265 C87 1.742 . S
C272 C100 1.276 . S
C274 C178 1.332 . S
C281 C10 1.383 . S
C283 C72 1.626 . S
C290 C56 1.583 . S
C292 C20 1.556 . S
C299 C30 1.507 . S
C301 C23 1.505 . S
C308 C33 1.251 . S
C310 C46 0.940 . S
C317 C62 1.036 . S
C319 C49 1.297 . S
C326 C69 1.574 . S
C328 C85 1.509 . S
C335 C88 1.365 . S
C337 C43 1.491 . S
C344 C17 1.881 . S
C346 C7 1.931 . S
C353 C75 1.225 . S
C355 C36 0.978 . S
C362 C101 1.454 . S
C364 C59 1.444 . S
C371 C153 1.482 . S
C373 C114 1.535 . S
C380 C124 1.634 . S
C382 C160 1.539 . S
C389 C134 1.316 . S
C391 C179 1.378 . S
C398 C150 1.620 . S
C400 C163 1.298 . S
C407 C166 1.632 . S
C409 C173 1.846 . S
C416 C176 1.615 . S
C418 C189 1.505 . S
C425 C147 1.305 . S
C427 C192 1.374 . S
C434 C202 1.588 . S
C436 C137 1.353 . S
C443 C199 1.532 . S
C445 C111 1.639 . S
C452 C121 1.329 . S
C454 C108 1.385 . S
C461 C140 1.461 . S
C463 C127 1.508 . S
C470 C186 1.725 . S
C472 C205 1.728 . S
C479 C98 1.723 . S
C481 C82 1.806 . S
C488 C4 1.808 . S
C490 C95 1.890 . S
