# Generated by pormake.
# Topology pcb, (4)-cn, num edge types: 1
# Building blocks:
#     Node 0, Type 0, BuildingBlock: N197, # of connection points: 6
#     Node 1, Type 0, BuildingBlock: N197, # of connection points: 6
#     Node 2, Type 0, BuildingBlock: N197, # of connection points: 6
#     Node 3, Type 0, BuildingBlock: N197, # of connection points: 6
#     Node 4, Type 0, BuildingBlock: N197, # of connection points: 6
#     Node 5, Type 0, BuildingBlock: N197, # of connection points: 6
#     Node 6, Type 0, BuildingBlock: N197, # of connection points: 6
#     Node 7, Type 0, BuildingBlock: N197, # of connection points: 6
#     Node 8, Type 0, BuildingBlock: N197, # of connection points: 6
#     Node 9, Type 0, BuildingBlock: N197, # of connection points: 6
#     Node 10, Type 0, BuildingBlock: N197, # of connection points: 6
#     Node 11, Type 0, BuildingBlock: N197, # of connection points: 6
#     Node 12, Type 0, BuildingBlock: N197, # of connection points: 6
#     Node 13, Type 0, BuildingBlock: N197, # of connection points: 6
#     Node 14, Type 0, BuildingBlock: N197, # of connection points: 6
#     Node 15, Type 0, BuildingBlock: N197, # of connection points: 6
#     Edge 16, Type (0, 0), BuildingBlock: E66, # of connection points: 2
#     Edge 17, Type (0, 0), BuildingBlock: E66, # of connection points: 2
#     Edge 18, Type (0, 0), BuildingBlock: E66, # of connection points: 2
#     Edge 19, Type (0, 0), BuildingBlock: E66, # of connection points: 2
#     Edge 20, Type (0, 0), BuildingBlock: E66, # of connection points: 2
#     Edge 21, Type (0, 0), BuildingBlock: E66, # of connection points: 2
#     Edge 22, Type (0, 0), BuildingBlock: E66, # of connection points: 2
#     Edge 23, Type (0, 0), BuildingBlock: E66, # of connection points: 2
#     Edge 24, Type (0, 0), BuildingBlock: E66, # of connection points: 2
#     Edge 25, Type (0, 0), BuildingBlock: E66, # of connection points: 2
#     Edge 26, Type (0, 0), BuildingBlock: E66, # of connection points: 2
#     Edge 27, Type (0, 0), BuildingBlock: E66, # of connection points: 2
#     Edge 28, Type (0, 0), BuildingBlock: E66, # of connection points: 2
#     Edge 29, Type (0, 0), BuildingBlock: E66, # of connection points: 2
#     Edge 30, Type (0, 0), BuildingBlock: E66, # of connection points: 2
#     Edge 31, Type (0, 0), BuildingBlock: E66, # of connection points: 2
#     Edge 32, Type (0, 0), BuildingBlock: E66, # of connection points: 2
#     Edge 33, Type (0, 0), BuildingBlock: E66, # of connection points: 2
#     Edge 34, Type (0, 0), BuildingBlock: E66, # of connection points: 2
#     Edge 35, Type (0, 0), BuildingBlock: E66, # of connection points: 2
#     Edge 36, Type (0, 0), BuildingBlock: E66, # of connection points: 2
#     Edge 37, Type (0, 0), BuildingBlock: E66, # of connection points: 2
#     Edge 38, Type (0, 0), BuildingBlock: E66, # of connection points: 2
#     Edge 39, Type (0, 0), BuildingBlock: E66, # of connection points: 2
#     Edge 40, Type (0, 0), BuildingBlock: E66, # of connection points: 2
#     Edge 41, Type (0, 0), BuildingBlock: E66, # of connection points: 2
#     Edge 42, Type (0, 0), BuildingBlock: E66, # of connection points: 2
#     Edge 43, Type (0, 0), BuildingBlock: E66, # of connection points: 2
#     Edge 44, Type (0, 0), BuildingBlock: E66, # of connection points: 2
#     Edge 45, Type (0, 0), BuildingBlock: E66, # of connection points: 2
#     Edge 46, Type (0, 0), BuildingBlock: E66, # of connection points: 2
#     Edge 47, Type (0, 0), BuildingBlock: E66, # of connection points: 2
# Relax obj value: 0.288
# Max RMSD: 0.384
# Mean RMSD: 0.292
data_pcb+N197+E66
_symmetry_space_group_name_H-M    P1
_symmetry_Int_Tables_number       1
_symmetry_cell_setting            triclinic
loop_
_symmetry_equiv_pos_as_xyz
'x, y, z'
_cell_length_a     37.409
_cell_length_b     36.999
_cell_length_c     35.645
_cell_angle_alpha  99.461
_cell_angle_beta   96.207
_cell_angle_gamma  91.378
loop_
_atom_site_label
_atom_site_type_symbol
_atom_site_fract_x
_atom_site_fract_y
_atom_site_fract_z
_atom_type_partial_charge
O0 O 0.87167 0.03686 0.80335 0.00000
O1 O 0.79755 0.11965 0.70474 0.00000
O2 O 0.80789 0.17308 0.73877 0.00000
Zn3 Zn 0.79347 0.06802 0.80855 0.00000
O4 O 0.82251 0.02360 0.76174 0.00000
Zn5 Zn 0.84696 0.14893 0.76811 0.00000
C6 C 0.90502 0.09679 0.74462 0.00000
Zn7 Zn 0.81465 0.07759 0.73519 0.00000
Zn8 Zn 0.86892 0.09278 0.81378 0.00000
C9 C 0.73589 0.06495 0.75388 0.00000
O10 O 0.90715 0.09053 0.77653 0.00000
C11 C 0.82764 0.08974 0.88194 0.00000
C12 C 0.88369 0.17452 0.83956 0.00000
O13 O 0.75964 0.06231 0.73340 0.00000
O14 O 0.74138 0.07248 0.78904 0.00000
O15 O 0.87205 0.09853 0.72429 0.00000
C16 C 0.85033 0.01407 0.78597 0.00000
O17 O 0.86171 0.18521 0.81575 0.00000
O18 O 0.89098 0.14300 0.83990 0.00000
C19 C 0.79361 0.15225 0.71024 0.00000
O20 O 0.82392 0.10398 0.78517 0.00000
O21 O 0.79694 0.08725 0.86471 0.00000
O22 O 0.85511 0.08875 0.86701 0.00000
O23 O 0.90719 0.10044 0.11672 0.00000
O24 O 0.81486 0.18256 0.20725 0.00000
O25 O 0.76432 0.16076 0.17673 0.00000
Zn26 Zn 0.86665 0.17160 0.09953 0.00000
O27 O 0.91322 0.15708 0.14997 0.00000
Zn28 Zn 0.79350 0.11989 0.15269 0.00000
C29 C 0.85175 0.07372 0.18414 0.00000
Zn30 Zn 0.85881 0.16441 0.17765 0.00000
Zn31 Zn 0.85215 0.09553 0.10796 0.00000
C32 C 0.86138 0.23785 0.14497 0.00000
O33 O 0.85868 0.06614 0.15198 0.00000
C34 C 0.85091 0.12242 0.03196 0.00000
C35 C 0.77427 0.06824 0.08766 0.00000
O36 O 0.86670 0.21921 0.16957 0.00000
O37 O 0.85526 0.22504 0.11064 0.00000
O38 O 0.84548 0.10920 0.19921 0.00000
C39 C 0.92653 0.12658 0.12979 0.00000
O40 O 0.76058 0.09293 0.10846 0.00000
O41 O 0.80613 0.06429 0.08729 0.00000
C42 C 0.78246 0.18206 0.20233 0.00000
O43 O 0.83492 0.14324 0.12974 0.00000
O44 O 0.84913 0.15553 0.04410 0.00000
O45 O 0.85518 0.09896 0.05164 0.00000
O46 O 0.90548 0.94337 0.20708 0.00000
O47 O 0.85173 0.85756 0.30535 0.00000
O48 O 0.86030 0.80428 0.27432 0.00000
Zn49 Zn 0.82833 0.90259 0.19741 0.00000
O50 O 0.86177 0.95254 0.24482 0.00000
Zn51 Zn 0.89338 0.83145 0.24639 0.00000
C52 C 0.95181 0.89142 0.27201 0.00000
Zn53 Zn 0.86147 0.89963 0.27375 0.00000
Zn54 Zn 0.90473 0.88724 0.19906 0.00000
C55 C 0.77885 0.90133 0.24823 0.00000
O56 O 0.94863 0.89619 0.23957 0.00000
C57 C 0.85266 0.88153 0.12677 0.00000
C58 C 0.92083 0.80699 0.17810 0.00000
O59 O 0.80563 0.90797 0.27063 0.00000
O60 O 0.77942 0.89273 0.21341 0.00000
O61 O 0.92201 0.88666 0.29018 0.00000
C62 C 0.88531 0.96415 0.22193 0.00000
O63 O 0.90315 0.79495 0.20107 0.00000
O64 O 0.92604 0.83901 0.17677 0.00000
C65 C 0.84904 0.82457 0.30108 0.00000
O66 O 0.86475 0.87209 0.22515 0.00000
O67 O 0.82439 0.88108 0.14176 0.00000
O68 O 0.88242 0.88671 0.14392 0.00000
O69 O 0.12902 0.89311 0.14966 0.00000
O70 O 0.22997 0.79604 0.19693 0.00000
O71 O 0.19832 0.74576 0.17975 0.00000
Zn72 Zn 0.13339 0.85805 0.22572 0.00000
O73 O 0.17271 0.90003 0.19818 0.00000
Zn74 Zn 0.16641 0.77502 0.14780 0.00000
C75 C 0.18079 0.82853 0.09463 0.00000
Zn76 Zn 0.19913 0.84242 0.19177 0.00000
Zn77 Zn 0.12069 0.83736 0.14248 0.00000
C78 C 0.19029 0.85297 0.27920 0.00000
O79 O 0.15091 0.83804 0.09798 0.00000
C80 C 0.06210 0.84486 0.19542 0.00000
C81 C 0.09669 0.75785 0.11376 0.00000
O82 O 0.20658 0.85490 0.25216 0.00000
O83 O 0.15727 0.84899 0.27664 0.00000
O84 O 0.20328 0.82313 0.12601 0.00000
C85 C 0.14704 0.91343 0.17430 0.00000
O86 O 0.12135 0.74362 0.13136 0.00000
O87 O 0.09500 0.79017 0.11265 0.00000
C88 C 0.22591 0.76337 0.19511 0.00000
O89 O 0.15233 0.82098 0.18339 0.00000
O90 O 0.08138 0.84416 0.22571 0.00000
O91 O 0.07287 0.84584 0.16490 0.00000
O92 O 0.06908 0.12175 0.12584 0.00000
O93 O 0.18189 0.22339 0.18716 0.00000
O94 O 0.22619 0.19142 0.16985 0.00000
Zn95 Zn 0.12017 0.12401 0.20370 0.00000
O96 O 0.07521 0.16505 0.17768 0.00000
Zn97 Zn 0.18837 0.15978 0.13364 0.00000
C98 C 0.12496 0.17608 0.07927 0.00000
Zn99 Zn 0.13276 0.19211 0.17676 0.00000
Zn100 Zn 0.12240 0.11333 0.12089 0.00000
C101 C 0.14011 0.18063 0.26230 0.00000
O102 O 0.11431 0.14547 0.07937 0.00000
C103 C 0.12233 0.05198 0.16778 0.00000
C104 C 0.19380 0.08946 0.09436 0.00000
O105 O 0.13355 0.19805 0.23681 0.00000
O106 O 0.14140 0.14696 0.25696 0.00000
O107 O 0.13837 0.19817 0.11280 0.00000
C108 C 0.05524 0.13952 0.15090 0.00000
O109 O 0.21321 0.11413 0.11485 0.00000
O110 O 0.16136 0.08783 0.09140 0.00000
C111 C 0.21370 0.21922 0.18670 0.00000
O112 O 0.14930 0.14448 0.16531 0.00000
O113 O 0.13064 0.07084 0.19968 0.00000
O114 O 0.11563 0.06385 0.13837 0.00000
O115 O 0.92265 0.88292 0.89694 0.00000
O116 O 0.80959 0.79801 0.80629 0.00000
O117 O 0.76610 0.81737 0.83772 0.00000
Zn118 Zn 0.88544 0.80961 0.91308 0.00000
O119 O 0.92081 0.82681 0.86261 0.00000
Zn120 Zn 0.80093 0.85923 0.86213 0.00000
C121 C 0.85244 0.90840 0.83107 0.00000
Zn122 Zn 0.86024 0.81762 0.83558 0.00000
Zn123 Zn 0.86967 0.88545 0.90643 0.00000
C124 C 0.86953 0.74358 0.86656 0.00000
O125 O 0.86659 0.91583 0.86314 0.00000
C126 C 0.88520 0.85733 0.98152 0.00000
C127 C 0.79663 0.90933 0.92814 0.00000
O128 O 0.86949 0.76285 0.84239 0.00000
O129 O 0.87118 0.75568 0.90106 0.00000
O130 O 0.84254 0.87277 0.81543 0.00000
C131 C 0.93885 0.85767 0.88316 0.00000
O132 O 0.77813 0.88429 0.90710 0.00000
O133 O 0.82857 0.91459 0.92820 0.00000
C134 C 0.77833 0.79711 0.81159 0.00000
O135 O 0.84723 0.83718 0.88398 0.00000
O136 O 0.88045 0.82422 0.96878 0.00000
O137 O 0.88524 0.88133 0.96236 0.00000
O138 O 0.10239 0.88698 0.88114 0.00000
O139 O 0.20233 0.79268 0.81678 0.00000
O140 O 0.25020 0.82694 0.83482 0.00000
Zn141 Zn 0.13649 0.88929 0.80350 0.00000
O142 O 0.09746 0.84496 0.82827 0.00000
Zn143 Zn 0.22012 0.85579 0.87190 0.00000
C144 C 0.16869 0.83464 0.92566 0.00000
Zn145 Zn 0.15533 0.82105 0.82821 0.00000
Zn146 Zn 0.15671 0.89838 0.88616 0.00000
C147 C 0.14396 0.83482 0.74346 0.00000
O148 O 0.15786 0.86477 0.92651 0.00000
C149 C 0.14608 0.96098 0.84137 0.00000
C150 C 0.23372 0.92588 0.91304 0.00000
O151 O 0.14306 0.81642 0.76831 0.00000
O152 O 0.14623 0.86859 0.74978 0.00000
O153 O 0.17490 0.81394 0.89162 0.00000
C154 C 0.08319 0.86888 0.85573 0.00000
O155 O 0.24878 0.90265 0.89187 0.00000
O156 O 0.20194 0.92560 0.91614 0.00000
C157 C 0.23420 0.79867 0.81727 0.00000
O158 O 0.17409 0.86958 0.84098 0.00000
O159 O 0.14753 0.94320 0.80906 0.00000
O160 O 0.14586 0.94806 0.87028 0.00000
O161 O 0.06175 0.14566 0.84575 0.00000
O162 O 0.15494 0.20803 0.75924 0.00000
O163 O 0.20449 0.20605 0.79513 0.00000
Zn164 Zn 0.09331 0.22804 0.86013 0.00000
O165 O 0.05343 0.18794 0.80825 0.00000
Zn166 Zn 0.17700 0.17011 0.81927 0.00000
C167 C 0.12670 0.10408 0.78742 0.00000
Zn168 Zn 0.10985 0.19389 0.78558 0.00000
Zn169 Zn 0.11632 0.15301 0.85952 0.00000
C170 C 0.09655 0.27711 0.81100 0.00000
O171 O 0.11726 0.10724 0.81865 0.00000
C172 C 0.10707 0.20711 0.93117 0.00000
C173 C 0.19477 0.14641 0.88836 0.00000
O174 O 0.09563 0.24909 0.78819 0.00000
O175 O 0.10044 0.27807 0.84592 0.00000
O176 O 0.13093 0.13429 0.77041 0.00000
C177 C 0.04114 0.16330 0.82919 0.00000
O178 O 0.20808 0.16520 0.86734 0.00000
O179 O 0.16330 0.13750 0.88624 0.00000
C180 C 0.18685 0.21461 0.76692 0.00000
O181 O 0.13095 0.19452 0.83595 0.00000
O182 O 0.10675 0.23534 0.91681 0.00000
O183 O 0.10719 0.17634 0.91363 0.00000
O184 O 0.60882 0.67678 0.39908 0.00000
O185 O 0.71747 0.74759 0.33862 0.00000
O186 O 0.76278 0.73587 0.37632 0.00000
Zn187 Zn 0.64624 0.75550 0.43159 0.00000
O188 O 0.60858 0.72654 0.37150 0.00000
Zn189 Zn 0.72930 0.69744 0.38942 0.00000
C190 C 0.67660 0.63961 0.34207 0.00000
Zn191 Zn 0.66811 0.73219 0.35649 0.00000
Zn192 Zn 0.66251 0.67786 0.41834 0.00000
C193 C 0.65948 0.81325 0.39548 0.00000
O194 O 0.66391 0.63826 0.37111 0.00000
C195 C 0.65007 0.72134 0.49531 0.00000
C196 C 0.73710 0.66049 0.45112 0.00000
O197 O 0.65860 0.78875 0.36851 0.00000
O198 O 0.65951 0.80806 0.42875 0.00000
O199 O 0.68550 0.67277 0.33244 0.00000
C200 C 0.59168 0.69897 0.38518 0.00000
O201 O 0.75450 0.68208 0.43631 0.00000
O202 O 0.70507 0.65416 0.44456 0.00000
C203 C 0.74911 0.75060 0.34998 0.00000
O204 O 0.68357 0.72280 0.40572 0.00000
O205 O 0.65394 0.75238 0.48737 0.00000
O206 O 0.64937 0.69309 0.47283 0.00000
O207 O 0.42322 0.60492 0.35202 0.00000
O208 O 0.35887 0.70788 0.27072 0.00000
O209 O 0.36736 0.75549 0.31451 0.00000
Zn210 Zn 0.34475 0.63552 0.35662 0.00000
O211 O 0.37715 0.59950 0.30615 0.00000
Zn212 Zn 0.40363 0.72535 0.34027 0.00000
C213 C 0.46303 0.67700 0.31249 0.00000
Zn214 Zn 0.37260 0.65936 0.29190 0.00000
Zn215 Zn 0.42065 0.65961 0.37315 0.00000
C216 C 0.29154 0.64295 0.29994 0.00000
O217 O 0.46228 0.66450 0.34118 0.00000
C218 C 0.37315 0.64339 0.43263 0.00000
C219 C 0.43485 0.73752 0.41551 0.00000
O220 O 0.31714 0.64422 0.28231 0.00000
O221 O 0.29415 0.64381 0.33483 0.00000
O222 O 0.43168 0.68268 0.29101 0.00000
C223 C 0.40283 0.58516 0.32920 0.00000
O224 O 0.41502 0.75294 0.39359 0.00000
O225 O 0.44153 0.70549 0.40989 0.00000
C226 C 0.35507 0.73988 0.28231 0.00000
O227 O 0.37809 0.67648 0.34488 0.00000
O228 O 0.34373 0.64419 0.41338 0.00000
O229 O 0.40205 0.64526 0.42085 0.00000
O230 O 0.39636 0.44995 0.34054 0.00000
O231 O 0.30512 0.33432 0.26054 0.00000
O232 O 0.33514 0.28926 0.27596 0.00000
Zn233 Zn 0.40551 0.40116 0.26014 0.00000
O234 O 0.36049 0.44468 0.28574 0.00000
Zn235 Zn 0.36116 0.32725 0.31768 0.00000
C236 C 0.33660 0.38910 0.37483 0.00000
Zn237 Zn 0.33418 0.38500 0.27839 0.00000
Zn238 Zn 0.40476 0.39550 0.34090 0.00000
C239 C 0.35749 0.38168 0.19617 0.00000
O240 O 0.36694 0.40093 0.37870 0.00000
C241 C 0.47230 0.39954 0.30151 0.00000
C242 C 0.42582 0.32209 0.36181 0.00000
O243 O 0.33656 0.38670 0.21976 0.00000
O244 O 0.39029 0.38114 0.20443 0.00000
O245 O 0.31941 0.37623 0.33902 0.00000
C246 C 0.38195 0.46467 0.31600 0.00000
O247 O 0.40433 0.30243 0.33776 0.00000
O248 O 0.42660 0.35515 0.36801 0.00000
C249 C 0.30963 0.30193 0.25826 0.00000
O250 O 0.38023 0.36905 0.29239 0.00000
O251 O 0.45804 0.39191 0.26809 0.00000
O252 O 0.45634 0.40471 0.32943 0.00000
O253 O 0.56077 0.60765 0.64046 0.00000
O254 O 0.67387 0.69403 0.72930 0.00000
O255 O 0.71798 0.66189 0.71177 0.00000
Zn256 Zn 0.60256 0.59411 0.71924 0.00000
O257 O 0.56379 0.64264 0.69789 0.00000
Zn258 Zn 0.68218 0.63798 0.66778 0.00000
C259 C 0.62656 0.66719 0.61321 0.00000
Zn260 Zn 0.62359 0.66689 0.70835 0.00000
Zn261 Zn 0.61417 0.59683 0.63994 0.00000
C262 C 0.61957 0.64069 0.78702 0.00000
O263 O 0.61358 0.63675 0.60633 0.00000
C264 C 0.60374 0.52687 0.67213 0.00000
C265 C 0.68717 0.57285 0.61821 0.00000
O266 O 0.61744 0.66294 0.76577 0.00000
O267 O 0.61900 0.60735 0.77574 0.00000
O268 O 0.63752 0.68327 0.65023 0.00000
C269 C 0.54516 0.62234 0.66582 0.00000
O270 O 0.70595 0.59335 0.64416 0.00000
O271 O 0.65492 0.57357 0.61164 0.00000
C272 C 0.70548 0.68803 0.73149 0.00000
O273 O 0.63800 0.61952 0.69032 0.00000
O274 O 0.60955 0.54024 0.70647 0.00000
O275 O 0.60153 0.54415 0.64615 0.00000
O276 O 0.40437 0.59572 0.64112 0.00000
O277 O 0.30293 0.66530 0.72916 0.00000
O278 O 0.25686 0.65713 0.68682 0.00000
Zn279 Zn 0.37641 0.67629 0.64114 0.00000
O280 O 0.40987 0.64327 0.68880 0.00000
Zn281 Zn 0.28615 0.61899 0.65831 0.00000
C282 C 0.33155 0.55777 0.68164 0.00000
Zn283 Zn 0.35078 0.64970 0.70553 0.00000
Zn284 Zn 0.35112 0.59939 0.62218 0.00000
C285 C 0.36920 0.73162 0.70043 0.00000
O286 O 0.34451 0.55772 0.65251 0.00000
C287 C 0.36965 0.64626 0.56417 0.00000
C288 C 0.27507 0.58622 0.58217 0.00000
O289 O 0.36690 0.70591 0.71699 0.00000
O290 O 0.36908 0.72837 0.66546 0.00000
O291 O 0.32628 0.59020 0.70471 0.00000
C292 C 0.42383 0.61636 0.66408 0.00000
O293 O 0.25991 0.60718 0.60555 0.00000
O294 O 0.30627 0.57869 0.58627 0.00000
C295 C 0.27181 0.66979 0.71897 0.00000
O296 O 0.33499 0.64363 0.65297 0.00000
O297 O 0.36919 0.67656 0.58475 0.00000
O298 O 0.36679 0.61711 0.57475 0.00000
O299 O 0.32878 0.40509 0.60210 0.00000
O300 O 0.25606 0.30631 0.67332 0.00000
O301 O 0.26284 0.25676 0.63454 0.00000
Zn302 Zn 0.24878 0.37159 0.57868 0.00000
O303 O 0.28189 0.41170 0.63570 0.00000
Zn304 Zn 0.30157 0.28621 0.61632 0.00000
C305 C 0.36298 0.33803 0.65689 0.00000
Zn306 Zn 0.27331 0.35336 0.65260 0.00000
Zn307 Zn 0.32346 0.34961 0.58362 0.00000
C308 C 0.19369 0.36595 0.62207 0.00000
O309 O 0.36379 0.34846 0.62706 0.00000
C310 C 0.27875 0.35992 0.51026 0.00000
C311 C 0.33405 0.27045 0.54970 0.00000
O312 O 0.21866 0.36683 0.64664 0.00000
O313 O 0.19722 0.36291 0.58775 0.00000
O314 O 0.33077 0.33263 0.67056 0.00000
C315 C 0.30902 0.42533 0.61841 0.00000
O316 O 0.31273 0.25590 0.56747 0.00000
O317 O 0.34251 0.30269 0.55509 0.00000
C318 C 0.25064 0.27382 0.66269 0.00000
O319 O 0.27921 0.33319 0.60187 0.00000
O320 O 0.24882 0.35927 0.52190 0.00000
O321 O 0.30712 0.35994 0.52985 0.00000
O322 O 0.58631 0.35892 0.61427 0.00000
O323 O 0.67241 0.24787 0.65745 0.00000
O324 O 0.64271 0.20137 0.62334 0.00000
Zn325 Zn 0.57206 0.30748 0.67490 0.00000
O326 O 0.61919 0.35462 0.66911 0.00000
Zn327 Zn 0.61929 0.23856 0.59423 0.00000
C328 C 0.64782 0.30342 0.56252 0.00000
Zn329 Zn 0.64468 0.29682 0.65634 0.00000
Zn330 Zn 0.57740 0.30415 0.59319 0.00000
C331 C 0.61649 0.28961 0.73446 0.00000
O332 O 0.61764 0.31321 0.56076 0.00000
C333 C 0.50728 0.30242 0.62843 0.00000
C334 C 0.55677 0.23020 0.54390 0.00000
O335 O 0.63893 0.29672 0.71463 0.00000
O336 O 0.58398 0.28705 0.72364 0.00000
O337 O 0.66293 0.29080 0.59440 0.00000
C338 C 0.59953 0.37388 0.64501 0.00000
O339 O 0.57681 0.21144 0.56199 0.00000
O340 O 0.55663 0.26323 0.54992 0.00000
C341 C 0.66746 0.21525 0.64741 0.00000
O342 O 0.59904 0.27816 0.63315 0.00000
O343 O 0.51963 0.29488 0.65967 0.00000
O344 O 0.52497 0.30944 0.60401 0.00000
O345 O 0.63854 0.41102 0.36729 0.00000
O346 O 0.73808 0.31490 0.30505 0.00000
O347 O 0.78641 0.34052 0.33736 0.00000
Zn348 Zn 0.68853 0.42280 0.30313 0.00000
O349 O 0.63884 0.37845 0.30901 0.00000
Zn350 Zn 0.75288 0.36682 0.37229 0.00000
C351 C 0.68809 0.34230 0.40755 0.00000
Zn352 Zn 0.69298 0.34728 0.31363 0.00000
Zn353 Zn 0.69286 0.41504 0.38379 0.00000
C354 C 0.70092 0.37740 0.23771 0.00000
O355 O 0.68122 0.37389 0.41316 0.00000
C356 C 0.69989 0.48739 0.35520 0.00000
C357 C 0.76732 0.42873 0.42767 0.00000
O358 O 0.69247 0.35458 0.25603 0.00000
O359 O 0.70640 0.41012 0.25137 0.00000
O360 O 0.69844 0.32660 0.37306 0.00000
C361 C 0.62230 0.39953 0.33683 0.00000
O362 O 0.78347 0.40714 0.40585 0.00000
O363 O 0.73517 0.43177 0.42493 0.00000
C364 C 0.77036 0.31699 0.31233 0.00000
O365 O 0.71546 0.39176 0.33930 0.00000
O366 O 0.70556 0.47492 0.32212 0.00000
O367 O 0.69202 0.46931 0.37855 0.00000
C368 C 0.71384 0.20068 0.66382 0.00000
C369 C 0.76067 0.16647 0.68771 0.00000
N370 N 0.76553 0.20069 0.69898 0.00000
N371 N 0.73820 0.22064 0.68535 0.00000
S372 S 0.72105 0.15452 0.65878 0.00000
C373 C 0.77416 0.26966 0.28707 0.00000
C374 C 0.77152 0.21704 0.23961 0.00000
N375 N 0.76152 0.21076 0.27083 0.00000
N376 N 0.76278 0.24137 0.29841 0.00000
S377 S 0.78356 0.26221 0.24035 0.00000
C378 C 0.82750 0.80669 0.32625 0.00000
C379 C 0.77373 0.77706 0.33590 0.00000
N380 N 0.80110 0.76817 0.35597 0.00000
N381 N 0.83238 0.78557 0.35063 0.00000
S382 S 0.78335 0.80869 0.30782 0.00000
C383 C 0.27090 0.75310 0.21152 0.00000
C384 C 0.33002 0.75113 0.24103 0.00000
N385 N 0.32127 0.72433 0.21432 0.00000
N386 N 0.28697 0.72554 0.19691 0.00000
S387 S 0.29663 0.78173 0.24780 0.00000
C388 C 0.27932 0.28404 0.23958 0.00000
C389 C 0.22786 0.24882 0.20937 0.00000
N390 N 0.25396 0.22958 0.21837 0.00000
N391 N 0.28385 0.24999 0.23621 0.00000
S392 S 0.23704 0.29512 0.22232 0.00000
C393 C 0.75888 0.77254 0.78462 0.00000
C394 C 0.71835 0.72832 0.74640 0.00000
N395 N 0.70570 0.74461 0.77586 0.00000
N396 N 0.72912 0.77054 0.79801 0.00000
S397 S 0.76121 0.74347 0.74217 0.00000
C398 C 0.25746 0.69711 0.75867 0.00000
C399 C 0.25081 0.75255 0.79980 0.00000
N400 N 0.23765 0.72485 0.81097 0.00000
N401 N 0.24172 0.69252 0.78725 0.00000
S402 S 0.27038 0.74190 0.75823 0.00000
C403 C 0.19813 0.22678 0.72934 0.00000
C404 C 0.23048 0.26651 0.69882 0.00000
N405 N 0.19973 0.25638 0.68121 0.00000
N406 N 0.18074 0.23348 0.69904 0.00000
S407 S 0.23973 0.24902 0.74034 0.00000
C408 C 0.86285 0.98951 0.79504 0.00000
C409 C 0.84365 0.93756 0.81886 0.00000
N410 N 0.85456 0.96426 0.84494 0.00000
N411 N 0.86550 0.99462 0.83117 0.00000
S412 S 0.84527 0.94689 0.77348 0.00000
C413 C 0.02156 0.13205 0.14031 0.00000
C414 C 0.95874 0.12640 0.13990 0.00000
N415 N 0.97597 0.11271 0.16636 0.00000
N416 N 0.01253 0.11619 0.16685 0.00000
S417 S 0.98594 0.14583 0.11219 0.00000
C418 C 0.88520 0.99213 0.21511 0.00000
C419 C 0.85598 0.04589 0.20507 0.00000
N420 N 0.83494 0.01772 0.19921 0.00000
N421 N 0.85181 0.98644 0.20529 0.00000
S422 S 0.89975 0.03718 0.21936 0.00000
C423 C 0.98116 0.87731 0.25788 0.00000
C424 C 0.02683 0.86079 0.21865 0.00000
N425 N 0.99644 0.86304 0.19993 0.00000
N426 N 0.96987 0.87291 0.22267 0.00000
S427 S 0.02640 0.87105 0.26732 0.00000
C428 C 0.12831 0.00984 0.16753 0.00000
C429 C 0.14973 0.95046 0.16643 0.00000
N430 N 0.14938 0.96144 0.13458 0.00000
N431 N 0.13717 0.99608 0.13520 0.00000
S432 S 0.13515 0.98213 0.20167 0.00000
C433 C 0.98121 0.86705 0.88054 0.00000
C434 C 0.04043 0.86191 0.86444 0.00000
N435 N 0.03240 0.84002 0.88635 0.00000
N436 N 0.99787 0.84276 0.89554 0.00000
S437 S 0.00576 0.88872 0.85204 0.00000
C438 C 0.17982 0.82951 0.97738 0.00000
C439 C 0.17943 0.83389 0.04393 0.00000
N440 N 0.20935 0.84390 0.03455 0.00000
N441 N 0.20958 0.84164 0.99587 0.00000
S442 S 0.14735 0.82058 0.00562 0.00000
C443 C 0.84575 0.11546 0.98898 0.00000
C444 C 0.82198 0.09322 0.92531 0.00000
N445 N 0.84703 0.07431 0.93757 0.00000
N446 N 0.86074 0.08701 0.97470 0.00000
S447 S 0.81189 0.12935 0.95869 0.00000
C448 C 0.87962 0.86397 0.02642 0.00000
C449 C 0.84634 0.87414 0.07924 0.00000
N450 N 0.86057 0.90325 0.07201 0.00000
N451 N 0.87973 0.89745 0.04112 0.00000
S452 S 0.85471 0.83553 0.04814 0.00000
C453 C 0.10908 0.20587 0.97834 0.00000
C454 C 0.12678 0.18262 0.03478 0.00000
N455 N 0.10229 0.16300 0.01287 0.00000
N456 N 0.09212 0.17631 0.97988 0.00000
S457 S 0.14069 0.22028 0.01695 0.00000
C458 C 0.63012 0.68547 0.58307 0.00000
C459 C 0.65006 0.72175 0.54045 0.00000
N460 N 0.62324 0.73436 0.55632 0.00000
N461 N 0.61174 0.71346 0.58135 0.00000
S462 S 0.66479 0.68215 0.55493 0.00000
C463 C 0.36825 0.64784 0.46555 0.00000
C464 C 0.36273 0.65393 0.53139 0.00000
N465 N 0.36856 0.68424 0.52056 0.00000
N466 N 0.37152 0.68082 0.48221 0.00000
S467 S 0.35982 0.61698 0.49499 0.00000
C468 C 0.31972 0.38223 0.41647 0.00000
C469 C 0.28195 0.37201 0.46266 0.00000
N470 N 0.30678 0.39617 0.47537 0.00000
N471 N 0.32864 0.40237 0.44848 0.00000
S472 S 0.28234 0.35395 0.41520 0.00000
C473 C 0.51211 0.62472 0.65478 0.00000
C474 C 0.45257 0.60314 0.65557 0.00000
N475 N 0.45461 0.63192 0.64085 0.00000
N476 N 0.48922 0.64439 0.64009 0.00000
S477 S 0.49373 0.58752 0.67018 0.00000
C478 C 0.32808 0.51961 0.67328 0.00000
C479 C 0.31710 0.45920 0.64030 0.00000
N480 N 0.33485 0.46101 0.67293 0.00000
N481 N 0.34105 0.49610 0.69230 0.00000
S482 S 0.30544 0.50118 0.62951 0.00000
C483 C 0.40487 0.32587 0.65945 0.00000
C484 C 0.45716 0.30000 0.63743 0.00000
N485 N 0.45582 0.30042 0.67284 0.00000
N486 N 0.42531 0.31521 0.68568 0.00000
S487 S 0.42024 0.31776 0.61525 0.00000
C488 C 0.60633 0.47885 0.66914 0.00000
C489 C 0.59640 0.41508 0.65054 0.00000
N490 N 0.61461 0.42399 0.68298 0.00000
N491 N 0.62021 0.46108 0.69400 0.00000
S492 S 0.58348 0.45194 0.62952 0.00000
C493 C 0.58075 0.39513 0.33064 0.00000
C494 C 0.51808 0.39369 0.31401 0.00000
N495 N 0.53276 0.36536 0.29868 0.00000
N496 N 0.56918 0.36599 0.30852 0.00000
S497 S 0.54782 0.42490 0.34315 0.00000
C498 C 0.70100 0.53899 0.35347 0.00000
C499 C 0.69177 0.59607 0.33390 0.00000
N500 N 0.71830 0.59673 0.35931 0.00000
N501 N 0.72390 0.56349 0.37055 0.00000
S502 S 0.67036 0.55367 0.32033 0.00000
C503 C 0.50034 0.67918 0.32464 0.00000
C504 C 0.55904 0.68740 0.35675 0.00000
N505 N 0.55318 0.65644 0.33543 0.00000
N506 N 0.51913 0.65168 0.31650 0.00000
S507 S 0.52283 0.71496 0.35576 0.00000
C508 C 0.38404 0.49850 0.33119 0.00000
C509 C 0.41541 0.55463 0.33239 0.00000
N510 N 0.39652 0.55503 0.35986 0.00000
N511 N 0.37845 0.52233 0.35940 0.00000
S512 S 0.41340 0.51315 0.30237 0.00000
C513 C 0.66554 0.30804 0.51262 0.00000
C514 C 0.67222 0.32375 0.45235 0.00000
N515 N 0.67822 0.29049 0.45408 0.00000
N516 N 0.67410 0.28121 0.48902 0.00000
S517 S 0.66026 0.34790 0.49414 0.00000
C518 C 0.13918 0.06199 0.79491 0.00000
C519 C 0.14320 0.01322 0.82978 0.00000
N520 N 0.17340 0.02875 0.82817 0.00000
N521 N 0.17112 0.05731 0.80814 0.00000
S522 S 0.10774 0.03245 0.80672 0.00000
C523 C 0.94711 0.11770 0.76226 0.00000
C524 C 0.99572 0.13578 0.80985 0.00000
N525 N 0.97478 0.16143 0.80508 0.00000
N526 N 0.94633 0.15093 0.77760 0.00000
S527 S 0.98250 0.09488 0.78084 0.00000
loop_
_geom_bond_atom_site_label_1
_geom_bond_atom_site_label_2
_geom_bond_distance
_geom_bond_site_symmetry_2
_ccdc_geom_bond_type
O0 Zn8 2.048 . S
O0 C16 1.192 . A
O1 Zn7 2.113 . S
O1 C19 1.205 . A
O2 Zn5 2.017 . S
O2 C19 1.232 . A
Zn3 O14 2.017 . S
Zn3 O20 2.063 . S
Zn3 O21 2.000 . S
O4 Zn7 2.358 . S
O4 C16 1.370 . A
Zn5 O17 2.000 . S
Zn5 O20 2.063 . S
C6 O10 1.192 . A
C6 O15 1.370 . A
Zn7 O13 2.113 . S
Zn7 O15 2.358 . S
Zn7 O20 1.878 . S
Zn8 O10 2.048 . S
Zn8 O18 2.047 . S
Zn8 O20 1.961 . S
Zn8 O22 2.047 . S
C9 O13 1.205 . A
C9 O14 1.232 . A
C11 O21 1.236 . A
C11 O22 1.206 . A
C12 O17 1.236 . A
C12 O18 1.206 . A
O23 Zn31 2.048 . S
O23 C39 1.192 . A
O24 Zn30 2.113 . S
O24 C42 1.205 . A
O25 Zn28 2.017 . S
O25 C42 1.232 . A
Zn26 O37 2.017 . S
Zn26 O43 2.063 . S
Zn26 O44 2.000 . S
O27 Zn30 2.358 . S
O27 C39 1.370 . A
Zn28 O40 2.000 . S
Zn28 O43 2.063 . S
C29 O33 1.192 . A
C29 O38 1.370 . A
Zn30 O36 2.113 . S
Zn30 O38 2.358 . S
Zn30 O43 1.878 . S
Zn31 O33 2.048 . S
Zn31 O41 2.047 . S
Zn31 O43 1.961 . S
Zn31 O45 2.047 . S
C32 O36 1.205 . A
C32 O37 1.232 . A
C34 O44 1.236 . A
C34 O45 1.206 . A
C35 O40 1.236 . A
C35 O41 1.206 . A
O46 Zn54 2.048 . S
O46 C62 1.192 . A
O47 Zn53 2.113 . S
O47 C65 1.205 . A
O48 Zn51 2.017 . S
O48 C65 1.232 . A
Zn49 O60 2.017 . S
Zn49 O66 2.063 . S
Zn49 O67 2.000 . S
O50 Zn53 2.358 . S
O50 C62 1.370 . A
Zn51 O63 2.000 . S
Zn51 O66 2.063 . S
C52 O56 1.192 . A
C52 O61 1.370 . A
Zn53 O59 2.113 . S
Zn53 O61 2.358 . S
Zn53 O66 1.878 . S
Zn54 O56 2.048 . S
Zn54 O64 2.047 . S
Zn54 O66 1.961 . S
Zn54 O68 2.047 . S
C55 O59 1.205 . A
C55 O60 1.232 . A
C57 O67 1.236 . A
C57 O68 1.206 . A
C58 O63 1.236 . A
C58 O64 1.206 . A
O69 Zn77 2.048 . S
O69 C85 1.192 . A
O70 Zn76 2.113 . S
O70 C88 1.205 . A
O71 Zn74 2.017 . S
O71 C88 1.232 . A
Zn72 O83 2.017 . S
Zn72 O89 2.063 . S
Zn72 O90 2.000 . S
O73 Zn76 2.358 . S
O73 C85 1.370 . A
Zn74 O86 2.000 . S
Zn74 O89 2.063 . S
C75 O79 1.192 . A
C75 O84 1.370 . A
Zn76 O82 2.113 . S
Zn76 O84 2.358 . S
Zn76 O89 1.878 . S
Zn77 O79 2.048 . S
Zn77 O87 2.047 . S
Zn77 O89 1.961 . S
Zn77 O91 2.047 . S
C78 O82 1.205 . A
C78 O83 1.232 . A
C80 O90 1.236 . A
C80 O91 1.206 . A
C81 O86 1.236 . A
C81 O87 1.206 . A
O92 Zn100 2.048 . S
O92 C108 1.192 . A
O93 Zn99 2.113 . S
O93 C111 1.205 . A
O94 Zn97 2.017 . S
O94 C111 1.232 . A
Zn95 O106 2.017 . S
Zn95 O112 2.063 . S
Zn95 O113 2.000 . S
O96 Zn99 2.358 . S
O96 C108 1.370 . A
Zn97 O109 2.000 . S
Zn97 O112 2.063 . S
C98 O102 1.192 . A
C98 O107 1.370 . A
Zn99 O105 2.113 . S
Zn99 O107 2.358 . S
Zn99 O112 1.878 . S
Zn100 O102 2.048 . S
Zn100 O110 2.047 . S
Zn100 O112 1.961 . S
Zn100 O114 2.047 . S
C101 O105 1.205 . A
C101 O106 1.232 . A
C103 O113 1.236 . A
C103 O114 1.206 . A
C104 O109 1.236 . A
C104 O110 1.206 . A
O115 Zn123 2.048 . S
O115 C131 1.192 . A
O116 Zn122 2.113 . S
O116 C134 1.205 . A
O117 Zn120 2.017 . S
O117 C134 1.232 . A
Zn118 O129 2.017 . S
Zn118 O135 2.063 . S
Zn118 O136 2.000 . S
O119 Zn122 2.358 . S
O119 C131 1.370 . A
Zn120 O132 2.000 . S
Zn120 O135 2.063 . S
C121 O125 1.192 . A
C121 O130 1.370 . A
Zn122 O128 2.113 . S
Zn122 O130 2.358 . S
Zn122 O135 1.878 . S
Zn123 O125 2.048 . S
Zn123 O133 2.047 . S
Zn123 O135 1.961 . S
Zn123 O137 2.047 . S
C124 O128 1.205 . A
C124 O129 1.232 . A
C126 O136 1.236 . A
C126 O137 1.206 . A
C127 O132 1.236 . A
C127 O133 1.206 . A
O138 Zn146 2.048 . S
O138 C154 1.192 . A
O139 Zn145 2.113 . S
O139 C157 1.205 . A
O140 Zn143 2.017 . S
O140 C157 1.232 . A
Zn141 O152 2.017 . S
Zn141 O158 2.063 . S
Zn141 O159 2.000 . S
O142 Zn145 2.358 . S
O142 C154 1.370 . A
Zn143 O155 2.000 . S
Zn143 O158 2.063 . S
C144 O148 1.192 . A
C144 O153 1.370 . A
Zn145 O151 2.113 . S
Zn145 O153 2.358 . S
Zn145 O158 1.878 . S
Zn146 O148 2.048 . S
Zn146 O156 2.047 . S
Zn146 O158 1.961 . S
Zn146 O160 2.047 . S
C147 O151 1.205 . A
C147 O152 1.232 . A
C149 O159 1.236 . A
C149 O160 1.206 . A
C150 O155 1.236 . A
C150 O156 1.206 . A
O161 Zn169 2.048 . S
O161 C177 1.192 . A
O162 Zn168 2.113 . S
O162 C180 1.205 . A
O163 Zn166 2.017 . S
O163 C180 1.232 . A
Zn164 O175 2.017 . S
Zn164 O181 2.063 . S
Zn164 O182 2.000 . S
O165 Zn168 2.358 . S
O165 C177 1.370 . A
Zn166 O178 2.000 . S
Zn166 O181 2.063 . S
C167 O171 1.192 . A
C167 O176 1.370 . A
Zn168 O174 2.113 . S
Zn168 O176 2.358 . S
Zn168 O181 1.878 . S
Zn169 O171 2.048 . S
Zn169 O179 2.047 . S
Zn169 O181 1.961 . S
Zn169 O183 2.047 . S
C170 O174 1.205 . A
C170 O175 1.232 . A
C172 O182 1.236 . A
C172 O183 1.206 . A
C173 O178 1.236 . A
C173 O179 1.206 . A
O184 Zn192 2.048 . S
O184 C200 1.192 . A
O185 Zn191 2.113 . S
O185 C203 1.205 . A
O186 Zn189 2.017 . S
O186 C203 1.232 . A
Zn187 O198 2.017 . S
Zn187 O204 2.063 . S
Zn187 O205 2.000 . S
O188 Zn191 2.358 . S
O188 C200 1.370 . A
Zn189 O201 2.000 . S
Zn189 O204 2.063 . S
C190 O194 1.192 . A
C190 O199 1.370 . A
Zn191 O197 2.113 . S
Zn191 O199 2.358 . S
Zn191 O204 1.878 . S
Zn192 O194 2.048 . S
Zn192 O202 2.047 . S
Zn192 O204 1.961 . S
Zn192 O206 2.047 . S
C193 O197 1.205 . A
C193 O198 1.232 . A
C195 O205 1.236 . A
C195 O206 1.206 . A
C196 O201 1.236 . A
C196 O202 1.206 . A
O207 Zn215 2.048 . S
O207 C223 1.192 . A
O208 Zn214 2.113 . S
O208 C226 1.205 . A
O209 Zn212 2.017 . S
O209 C226 1.232 . A
Zn210 O221 2.017 . S
Zn210 O227 2.063 . S
Zn210 O228 2.000 . S
O211 Zn214 2.358 . S
O211 C223 1.370 . A
Zn212 O224 2.000 . S
Zn212 O227 2.063 . S
C213 O217 1.192 . A
C213 O222 1.370 . A
Zn214 O220 2.113 . S
Zn214 O222 2.358 . S
Zn214 O227 1.878 . S
Zn215 O217 2.048 . S
Zn215 O225 2.047 . S
Zn215 O227 1.961 . S
Zn215 O229 2.047 . S
C216 O220 1.205 . A
C216 O221 1.232 . A
C218 O228 1.236 . A
C218 O229 1.206 . A
C219 O224 1.236 . A
C219 O225 1.206 . A
O230 Zn238 2.048 . S
O230 C246 1.192 . A
O231 Zn237 2.113 . S
O231 C249 1.205 . A
O232 Zn235 2.017 . S
O232 C249 1.232 . A
Zn233 O244 2.017 . S
Zn233 O250 2.063 . S
Zn233 O251 2.000 . S
O234 Zn237 2.358 . S
O234 C246 1.370 . A
Zn235 O247 2.000 . S
Zn235 O250 2.063 . S
C236 O240 1.192 . A
C236 O245 1.370 . A
Zn237 O243 2.113 . S
Zn237 O245 2.358 . S
Zn237 O250 1.878 . S
Zn238 O240 2.048 . S
Zn238 O248 2.047 . S
Zn238 O250 1.961 . S
Zn238 O252 2.047 . S
C239 O243 1.205 . A
C239 O244 1.232 . A
C241 O251 1.236 . A
C241 O252 1.206 . A
C242 O247 1.236 . A
C242 O248 1.206 . A
O253 Zn261 2.048 . S
O253 C269 1.192 . A
O254 Zn260 2.113 . S
O254 C272 1.205 . A
O255 Zn258 2.017 . S
O255 C272 1.232 . A
Zn256 O267 2.017 . S
Zn256 O273 2.063 . S
Zn256 O274 2.000 . S
O257 Zn260 2.358 . S
O257 C269 1.370 . A
Zn258 O270 2.000 . S
Zn258 O273 2.063 . S
C259 O263 1.192 . A
C259 O268 1.370 . A
Zn260 O266 2.113 . S
Zn260 O268 2.358 . S
Zn260 O273 1.878 . S
Zn261 O263 2.048 . S
Zn261 O271 2.047 . S
Zn261 O273 1.961 . S
Zn261 O275 2.047 . S
C262 O266 1.205 . A
C262 O267 1.232 . A
C264 O274 1.236 . A
C264 O275 1.206 . A
C265 O270 1.236 . A
C265 O271 1.206 . A
O276 Zn284 2.048 . S
O276 C292 1.192 . A
O277 Zn283 2.113 . S
O277 C295 1.205 . A
O278 Zn281 2.017 . S
O278 C295 1.232 . A
Zn279 O290 2.017 . S
Zn279 O296 2.063 . S
Zn279 O297 2.000 . S
O280 Zn283 2.358 . S
O280 C292 1.370 . A
Zn281 O293 2.000 . S
Zn281 O296 2.063 . S
C282 O286 1.192 . A
C282 O291 1.370 . A
Zn283 O289 2.113 . S
Zn283 O291 2.358 . S
Zn283 O296 1.878 . S
Zn284 O286 2.048 . S
Zn284 O294 2.047 . S
Zn284 O296 1.961 . S
Zn284 O298 2.047 . S
C285 O289 1.205 . A
C285 O290 1.232 . A
C287 O297 1.236 . A
C287 O298 1.206 . A
C288 O293 1.236 . A
C288 O294 1.206 . A
O299 Zn307 2.048 . S
O299 C315 1.192 . A
O300 Zn306 2.113 . S
O300 C318 1.205 . A
O301 Zn304 2.017 . S
O301 C318 1.232 . A
Zn302 O313 2.017 . S
Zn302 O319 2.063 . S
Zn302 O320 2.000 . S
O303 Zn306 2.358 . S
O303 C315 1.370 . A
Zn304 O316 2.000 . S
Zn304 O319 2.063 . S
C305 O309 1.192 . A
C305 O314 1.370 . A
Zn306 O312 2.113 . S
Zn306 O314 2.358 . S
Zn306 O319 1.878 . S
Zn307 O309 2.048 . S
Zn307 O317 2.047 . S
Zn307 O319 1.961 . S
Zn307 O321 2.047 . S
C308 O312 1.205 . A
C308 O313 1.232 . A
C310 O320 1.236 . A
C310 O321 1.206 . A
C311 O316 1.236 . A
C311 O317 1.206 . A
O322 Zn330 2.048 . S
O322 C338 1.192 . A
O323 Zn329 2.113 . S
O323 C341 1.205 . A
O324 Zn327 2.017 . S
O324 C341 1.232 . A
Zn325 O336 2.017 . S
Zn325 O342 2.063 . S
Zn325 O343 2.000 . S
O326 Zn329 2.358 . S
O326 C338 1.370 . A
Zn327 O339 2.000 . S
Zn327 O342 2.063 . S
C328 O332 1.192 . A
C328 O337 1.370 . A
Zn329 O335 2.113 . S
Zn329 O337 2.358 . S
Zn329 O342 1.878 . S
Zn330 O332 2.048 . S
Zn330 O340 2.047 . S
Zn330 O342 1.961 . S
Zn330 O344 2.047 . S
C331 O335 1.205 . A
C331 O336 1.232 . A
C333 O343 1.236 . A
C333 O344 1.206 . A
C334 O339 1.236 . A
C334 O340 1.206 . A
O345 Zn353 2.048 . S
O345 C361 1.192 . A
O346 Zn352 2.113 . S
O346 C364 1.205 . A
O347 Zn350 2.017 . S
O347 C364 1.232 . A
Zn348 O359 2.017 . S
Zn348 O365 2.063 . S
Zn348 O366 2.000 . S
O349 Zn352 2.358 . S
O349 C361 1.370 . A
Zn350 O362 2.000 . S
Zn350 O365 2.063 . S
C351 O355 1.192 . A
C351 O360 1.370 . A
Zn352 O358 2.113 . S
Zn352 O360 2.358 . S
Zn352 O365 1.878 . S
Zn353 O355 2.048 . S
Zn353 O363 2.047 . S
Zn353 O365 1.961 . S
Zn353 O367 2.047 . S
C354 O358 1.205 . A
C354 O359 1.232 . A
C356 O366 1.236 . A
C356 O367 1.206 . A
C357 O362 1.236 . A
C357 O363 1.206 . A
C368 N371 1.263 . A
C368 S372 1.718 . A
C369 N370 1.266 . A
C369 S372 1.716 . A
N370 N371 1.368 . A
C373 N376 1.263 . A
C373 S377 1.718 . A
C374 N375 1.266 . A
C374 S377 1.716 . A
N375 N376 1.368 . A
C378 N381 1.263 . A
C378 S382 1.718 . A
C379 N380 1.266 . A
C379 S382 1.716 . A
N380 N381 1.368 . A
C383 N386 1.263 . A
C383 S387 1.718 . A
C384 N385 1.266 . A
C384 S387 1.716 . A
N385 N386 1.368 . A
C388 N391 1.263 . A
C388 S392 1.718 . A
C389 N390 1.266 . A
C389 S392 1.716 . A
N390 N391 1.368 . A
C393 N396 1.263 . A
C393 S397 1.718 . A
C394 N395 1.266 . A
C394 S397 1.716 . A
N395 N396 1.368 . A
C398 N401 1.263 . A
C398 S402 1.718 . A
C399 N400 1.266 . A
C399 S402 1.716 . A
N400 N401 1.368 . A
C403 N406 1.263 . A
C403 S407 1.718 . A
C404 N405 1.266 . A
C404 S407 1.716 . A
N405 N406 1.368 . A
C408 N411 1.263 . A
C408 S412 1.718 . A
C409 N410 1.266 . A
C409 S412 1.716 . A
N410 N411 1.368 . A
C413 N416 1.263 . A
C413 S417 1.718 1_455 A
C414 N415 1.266 . A
C414 S417 1.716 . A
N415 N416 1.368 1_655 A
C418 N421 1.263 . A
C418 S422 1.718 1_565 A
C419 N420 1.266 . A
C419 S422 1.716 . A
N420 N421 1.368 1_545 A
C423 N426 1.263 . A
C423 S427 1.718 1_655 A
C424 N425 1.266 1_455 A
C424 S427 1.716 . A
N425 N426 1.368 . A
C428 N431 1.263 1_545 A
C428 S432 1.718 1_545 A
C429 N430 1.266 . A
C429 S432 1.716 . A
N430 N431 1.368 . A
C433 N436 1.263 . A
C433 S437 1.718 1_655 A
C434 N435 1.266 . A
C434 S437 1.716 . A
N435 N436 1.368 1_455 A
C438 N441 1.263 . A
C438 S442 1.718 1_556 A
C439 N440 1.266 . A
C439 S442 1.716 . A
N440 N441 1.368 1_554 A
C443 N446 1.263 . A
C443 S447 1.718 . A
C444 N445 1.266 . A
C444 S447 1.716 . A
N445 N446 1.368 . A
C448 N451 1.263 . A
C448 S452 1.718 . A
C449 N450 1.266 . A
C449 S452 1.716 . A
N450 N451 1.368 . A
C453 N456 1.263 . A
C453 S457 1.718 1_556 A
C454 N455 1.266 . A
C454 S457 1.716 . A
N455 N456 1.368 1_554 A
C458 N461 1.263 . A
C458 S462 1.718 . A
C459 N460 1.266 . A
C459 S462 1.716 . A
N460 N461 1.368 . A
C463 N466 1.263 . A
C463 S467 1.718 . A
C464 N465 1.266 . A
C464 S467 1.716 . A
N465 N466 1.368 . A
C468 N471 1.263 . A
C468 S472 1.718 . A
C469 N470 1.266 . A
C469 S472 1.716 . A
N470 N471 1.368 . A
C473 N476 1.263 . A
C473 S477 1.718 . A
C474 N475 1.266 . A
C474 S477 1.716 . A
N475 N476 1.368 . A
C478 N481 1.263 . A
C478 S482 1.718 . A
C479 N480 1.266 . A
C479 S482 1.716 . A
N480 N481 1.368 . A
C483 N486 1.263 . A
C483 S487 1.718 . A
C484 N485 1.266 . A
C484 S487 1.716 . A
N485 N486 1.368 . A
C488 N491 1.263 . A
C488 S492 1.718 . A
C489 N490 1.266 . A
C489 S492 1.716 . A
N490 N491 1.368 . A
C493 N496 1.263 . A
C493 S497 1.718 . A
C494 N495 1.266 . A
C494 S497 1.716 . A
N495 N496 1.368 . A
C498 N501 1.263 . A
C498 S502 1.718 . A
C499 N500 1.266 . A
C499 S502 1.716 . A
N500 N501 1.368 . A
C503 N506 1.263 . A
C503 S507 1.718 . A
C504 N505 1.266 . A
C504 S507 1.716 . A
N505 N506 1.368 . A
C508 N511 1.263 . A
C508 S512 1.718 . A
C509 N510 1.266 . A
C509 S512 1.716 . A
N510 N511 1.368 . A
C513 N516 1.263 . A
C513 S517 1.718 . A
C514 N515 1.266 . A
C514 S517 1.716 . A
N515 N516 1.368 . A
C518 N521 1.263 . A
C518 S522 1.718 . A
C519 N520 1.266 . A
C519 S522 1.716 . A
N520 N521 1.368 . A
C523 N526 1.263 . A
C523 S527 1.718 . A
C524 N525 1.266 . A
C524 S527 1.716 . A
N525 N526 1.368 . A
C368 C341 1.890 . S
C369 C19 1.548 . S
C373 C364 1.849 . S
C374 C42 1.785 . S
C378 C65 1.489 . S
C379 C203 1.509 . S
C383 C88 1.792 . S
C384 C226 1.772 . S
C388 C249 1.350 . S
C389 C111 1.312 . S
C393 C134 1.345 . S
C394 C272 1.545 . S
C398 C295 1.742 . S
C399 C157 1.863 . S
C403 C180 1.577 . S
C404 C318 1.617 . S
C408 C16 1.111 1_565 S
C409 C121 1.266 . S
C413 C108 1.285 . S
C414 C39 1.220 . S
C418 C62 1.102 . S
C419 C29 1.370 . S
C423 C52 1.338 . S
C424 C80 1.699 . S
C428 C103 1.579 . S
C429 C85 1.447 . S
C433 C131 1.630 . S
C434 C154 1.684 . S
C438 C144 1.887 . S
C439 C75 1.846 . S
C443 C34 1.501 1_556 S
C444 C11 1.568 . S
C448 C126 1.615 1_554 S
C449 C57 1.661 . S
C453 C172 1.683 . S
C454 C98 1.651 . S
C458 C259 1.376 . S
C459 C195 1.606 . S
C463 C218 1.192 . S
C464 C287 1.249 . S
C468 C236 1.728 . S
C469 C310 1.840 . S
C473 C269 1.266 . S
C474 C292 1.239 . S
C478 C282 1.394 . S
C479 C315 1.371 . S
C483 C305 1.638 . S
C484 C333 1.938 . S
C488 C264 1.768 . S
C489 C338 1.514 . S
C493 C361 1.547 . S
C494 C241 1.750 . S
C498 C356 1.920 . S
C499 C190 1.711 . S
C503 C213 1.412 . S
C504 C200 1.506 . S
C508 C246 1.277 . S
C509 C223 1.251 . S
C513 C328 1.996 . S
C514 C351 1.980 . S
C518 C167 1.691 . S
C519 C149 2.045 1_545 S
C523 C6 1.744 . S
C524 C177 1.957 1_655 S
