# Generated by pormake.
# Topology pcb, (4)-cn, num edge types: 1
# Building blocks:
#     Node 0, Type 0, BuildingBlock: N254, # of connection points: 5
#     Node 1, Type 0, BuildingBlock: N254, # of connection points: 5
#     Node 2, Type 0, BuildingBlock: N254, # of connection points: 5
#     Node 3, Type 0, BuildingBlock: N254, # of connection points: 5
#     Node 4, Type 0, BuildingBlock: N254, # of connection points: 5
#     Node 5, Type 0, BuildingBlock: N254, # of connection points: 5
#     Node 6, Type 0, BuildingBlock: N254, # of connection points: 5
#     Node 7, Type 0, BuildingBlock: N254, # of connection points: 5
#     Node 8, Type 0, BuildingBlock: N254, # of connection points: 5
#     Node 9, Type 0, BuildingBlock: N254, # of connection points: 5
#     Node 10, Type 0, BuildingBlock: N254, # of connection points: 5
#     Node 11, Type 0, BuildingBlock: N254, # of connection points: 5
#     Node 12, Type 0, BuildingBlock: N254, # of connection points: 5
#     Node 13, Type 0, BuildingBlock: N254, # of connection points: 5
#     Node 14, Type 0, BuildingBlock: N254, # of connection points: 5
#     Node 15, Type 0, BuildingBlock: N254, # of connection points: 5
#     Edge 16, Type (0, 0), BuildingBlock: E51, # of connection points: 2
#     Edge 17, Type (0, 0), BuildingBlock: E51, # of connection points: 2
#     Edge 18, Type (0, 0), BuildingBlock: E51, # of connection points: 2
#     Edge 19, Type (0, 0), BuildingBlock: E51, # of connection points: 2
#     Edge 20, Type (0, 0), BuildingBlock: E51, # of connection points: 2
#     Edge 21, Type (0, 0), BuildingBlock: E51, # of connection points: 2
#     Edge 22, Type (0, 0), BuildingBlock: E51, # of connection points: 2
#     Edge 23, Type (0, 0), BuildingBlock: E51, # of connection points: 2
#     Edge 24, Type (0, 0), BuildingBlock: E51, # of connection points: 2
#     Edge 25, Type (0, 0), BuildingBlock: E51, # of connection points: 2
#     Edge 26, Type (0, 0), BuildingBlock: E51, # of connection points: 2
#     Edge 27, Type (0, 0), BuildingBlock: E51, # of connection points: 2
#     Edge 28, Type (0, 0), BuildingBlock: E51, # of connection points: 2
#     Edge 29, Type (0, 0), BuildingBlock: E51, # of connection points: 2
#     Edge 30, Type (0, 0), BuildingBlock: E51, # of connection points: 2
#     Edge 31, Type (0, 0), BuildingBlock: E51, # of connection points: 2
#     Edge 32, Type (0, 0), BuildingBlock: E51, # of connection points: 2
#     Edge 33, Type (0, 0), BuildingBlock: E51, # of connection points: 2
#     Edge 34, Type (0, 0), BuildingBlock: E51, # of connection points: 2
#     Edge 35, Type (0, 0), BuildingBlock: E51, # of connection points: 2
#     Edge 36, Type (0, 0), BuildingBlock: E51, # of connection points: 2
#     Edge 37, Type (0, 0), BuildingBlock: E51, # of connection points: 2
#     Edge 38, Type (0, 0), BuildingBlock: E51, # of connection points: 2
#     Edge 39, Type (0, 0), BuildingBlock: E51, # of connection points: 2
#     Edge 40, Type (0, 0), BuildingBlock: E51, # of connection points: 2
#     Edge 41, Type (0, 0), BuildingBlock: E51, # of connection points: 2
#     Edge 42, Type (0, 0), BuildingBlock: E51, # of connection points: 2
#     Edge 43, Type (0, 0), BuildingBlock: E51, # of connection points: 2
#     Edge 44, Type (0, 0), BuildingBlock: E51, # of connection points: 2
#     Edge 45, Type (0, 0), BuildingBlock: E51, # of connection points: 2
#     Edge 46, Type (0, 0), BuildingBlock: E51, # of connection points: 2
#     Edge 47, Type (0, 0), BuildingBlock: E51, # of connection points: 2
# Relax obj value: 0.094
# Max RMSD: 0.348
# Mean RMSD: 0.348
data_pcb+N254+E51
_symmetry_space_group_name_H-M    P1
_symmetry_Int_Tables_number       1
_symmetry_cell_setting            triclinic
loop_
_symmetry_equiv_pos_as_xyz
'x, y, z'
_cell_length_a     28.317
_cell_length_b     29.525
_cell_length_c     29.525
_cell_angle_alpha  90.000
_cell_angle_beta   90.000
_cell_angle_gamma  90.000
loop_
_atom_site_label
_atom_site_type_symbol
_atom_site_fract_x
_atom_site_fract_y
_atom_site_fract_z
_atom_type_partial_charge
C0 C 0.93196 0.14817 0.86853 0.00000
C1 C 0.77561 0.15149 0.95768 0.00000
Cd2 Cd 0.83839 0.16725 0.86631 0.00000
Cd3 Cd 0.71148 0.17986 0.88794 0.00000
C4 C 0.61586 0.18196 0.87748 0.00000
O5 O 0.80616 0.09753 0.87070 0.00000
O6 O 0.73220 0.11616 0.85051 0.00000
O7 O 0.75068 0.21604 0.83095 0.00000
O8 O 0.80915 0.17877 0.79737 0.00000
O9 O 0.91177 0.14495 0.83136 0.00000
O10 O 0.90991 0.15797 0.90398 0.00000
O11 O 0.79828 0.17809 0.93282 0.00000
O12 O 0.73260 0.14301 0.95224 0.00000
O13 O 0.64063 0.20654 0.85277 0.00000
C14 C 0.76499 0.08849 0.85897 0.00000
C15 C 0.77055 0.19877 0.79629 0.00000
O16 O 0.63349 0.15693 0.90606 0.00000
C17 C 0.93196 0.13147 0.14817 0.00000
C18 C 0.77561 0.04232 0.15149 0.00000
Cd19 Cd 0.83839 0.13369 0.16725 0.00000
Cd20 Cd 0.71148 0.11206 0.17986 0.00000
C21 C 0.61586 0.12252 0.18196 0.00000
O22 O 0.80616 0.12930 0.09753 0.00000
O23 O 0.73220 0.14949 0.11616 0.00000
O24 O 0.75068 0.16905 0.21604 0.00000
O25 O 0.80915 0.20263 0.17877 0.00000
O26 O 0.91177 0.16864 0.14495 0.00000
O27 O 0.90991 0.09602 0.15797 0.00000
O28 O 0.79828 0.06718 0.17809 0.00000
O29 O 0.73260 0.04776 0.14301 0.00000
O30 O 0.64063 0.14723 0.20654 0.00000
C31 C 0.76499 0.14103 0.08849 0.00000
C32 C 0.77055 0.20371 0.19877 0.00000
O33 O 0.63349 0.09394 0.15693 0.00000
C34 C 0.93196 0.85183 0.13147 0.00000
C35 C 0.77561 0.84851 0.04232 0.00000
Cd36 Cd 0.83839 0.83275 0.13369 0.00000
Cd37 Cd 0.71148 0.82014 0.11206 0.00000
C38 C 0.61586 0.81804 0.12252 0.00000
O39 O 0.80616 0.90247 0.12930 0.00000
O40 O 0.73220 0.88384 0.14949 0.00000
O41 O 0.75068 0.78396 0.16905 0.00000
O42 O 0.80915 0.82123 0.20263 0.00000
O43 O 0.91177 0.85505 0.16864 0.00000
O44 O 0.90991 0.84203 0.09602 0.00000
O45 O 0.79828 0.82191 0.06718 0.00000
O46 O 0.73260 0.85699 0.04776 0.00000
O47 O 0.64063 0.79346 0.14723 0.00000
C48 C 0.76499 0.91151 0.14103 0.00000
C49 C 0.77055 0.80123 0.20371 0.00000
O50 O 0.63349 0.84307 0.09394 0.00000
C51 C 0.06804 0.86853 0.14817 0.00000
C52 C 0.22439 0.95768 0.15149 0.00000
Cd53 Cd 0.16161 0.86631 0.16725 0.00000
Cd54 Cd 0.28852 0.88794 0.17986 0.00000
C55 C 0.38414 0.87748 0.18196 0.00000
O56 O 0.19384 0.87070 0.09753 0.00000
O57 O 0.26780 0.85051 0.11616 0.00000
O58 O 0.24932 0.83095 0.21604 0.00000
O59 O 0.19085 0.79737 0.17877 0.00000
O60 O 0.08823 0.83136 0.14495 0.00000
O61 O 0.09009 0.90398 0.15797 0.00000
O62 O 0.20172 0.93282 0.17809 0.00000
O63 O 0.26740 0.95224 0.14301 0.00000
O64 O 0.35937 0.85277 0.20654 0.00000
C65 C 0.23501 0.85897 0.08849 0.00000
C66 C 0.22945 0.79629 0.19877 0.00000
O67 O 0.36651 0.90606 0.15693 0.00000
C68 C 0.06804 0.14817 0.13147 0.00000
C69 C 0.22439 0.15149 0.04232 0.00000
Cd70 Cd 0.16161 0.16725 0.13369 0.00000
Cd71 Cd 0.28852 0.17986 0.11206 0.00000
C72 C 0.38414 0.18196 0.12252 0.00000
O73 O 0.19384 0.09753 0.12930 0.00000
O74 O 0.26780 0.11616 0.14949 0.00000
O75 O 0.24932 0.21604 0.16905 0.00000
O76 O 0.19085 0.17877 0.20263 0.00000
O77 O 0.08823 0.14495 0.16864 0.00000
O78 O 0.09009 0.15797 0.09602 0.00000
O79 O 0.20172 0.17809 0.06718 0.00000
O80 O 0.26740 0.14301 0.04776 0.00000
O81 O 0.35937 0.20654 0.14723 0.00000
C82 C 0.23501 0.08849 0.14103 0.00000
C83 C 0.22945 0.19877 0.20371 0.00000
O84 O 0.36651 0.15693 0.09394 0.00000
C85 C 0.93196 0.86853 0.85183 0.00000
C86 C 0.77561 0.95768 0.84851 0.00000
Cd87 Cd 0.83839 0.86631 0.83275 0.00000
Cd88 Cd 0.71148 0.88794 0.82014 0.00000
C89 C 0.61586 0.87748 0.81804 0.00000
O90 O 0.80616 0.87070 0.90247 0.00000
O91 O 0.73220 0.85051 0.88384 0.00000
O92 O 0.75068 0.83095 0.78396 0.00000
O93 O 0.80915 0.79737 0.82123 0.00000
O94 O 0.91177 0.83136 0.85505 0.00000
O95 O 0.90991 0.90398 0.84203 0.00000
O96 O 0.79828 0.93282 0.82191 0.00000
O97 O 0.73260 0.95224 0.85699 0.00000
O98 O 0.64063 0.85277 0.79346 0.00000
C99 C 0.76499 0.85897 0.91151 0.00000
C100 C 0.77055 0.79629 0.80123 0.00000
O101 O 0.63349 0.90606 0.84307 0.00000
C102 C 0.06804 0.85183 0.86853 0.00000
C103 C 0.22439 0.84851 0.95768 0.00000
Cd104 Cd 0.16161 0.83275 0.86631 0.00000
Cd105 Cd 0.28852 0.82014 0.88794 0.00000
C106 C 0.38414 0.81804 0.87748 0.00000
O107 O 0.19384 0.90247 0.87070 0.00000
O108 O 0.26780 0.88384 0.85051 0.00000
O109 O 0.24932 0.78396 0.83095 0.00000
O110 O 0.19085 0.82123 0.79737 0.00000
O111 O 0.08823 0.85505 0.83136 0.00000
O112 O 0.09009 0.84203 0.90398 0.00000
O113 O 0.20172 0.82191 0.93282 0.00000
O114 O 0.26740 0.85699 0.95224 0.00000
O115 O 0.35937 0.79346 0.85277 0.00000
C116 C 0.23501 0.91151 0.85897 0.00000
C117 C 0.22945 0.80123 0.79629 0.00000
O118 O 0.36651 0.84307 0.90606 0.00000
C119 C 0.06804 0.13147 0.85183 0.00000
C120 C 0.22439 0.04232 0.84851 0.00000
Cd121 Cd 0.16161 0.13369 0.83275 0.00000
Cd122 Cd 0.28852 0.11206 0.82014 0.00000
C123 C 0.38414 0.12252 0.81804 0.00000
O124 O 0.19384 0.12930 0.90247 0.00000
O125 O 0.26780 0.14949 0.88384 0.00000
O126 O 0.24932 0.16905 0.78396 0.00000
O127 O 0.19085 0.20263 0.82123 0.00000
O128 O 0.08823 0.16864 0.85505 0.00000
O129 O 0.09009 0.09602 0.84203 0.00000
O130 O 0.20172 0.06718 0.82191 0.00000
O131 O 0.26740 0.04776 0.85699 0.00000
O132 O 0.35937 0.14723 0.79346 0.00000
C133 C 0.23501 0.14103 0.91151 0.00000
C134 C 0.22945 0.20371 0.80123 0.00000
O135 O 0.36651 0.09394 0.84307 0.00000
C136 C 0.56804 0.63147 0.35183 0.00000
C137 C 0.72439 0.54232 0.34851 0.00000
Cd138 Cd 0.66161 0.63369 0.33275 0.00000
Cd139 Cd 0.78852 0.61206 0.32014 0.00000
C140 C 0.88414 0.62252 0.31804 0.00000
O141 O 0.69384 0.62930 0.40247 0.00000
O142 O 0.76780 0.64949 0.38384 0.00000
O143 O 0.74932 0.66905 0.28396 0.00000
O144 O 0.69085 0.70263 0.32123 0.00000
O145 O 0.58823 0.66864 0.35505 0.00000
O146 O 0.59009 0.59602 0.34203 0.00000
O147 O 0.70172 0.56718 0.32191 0.00000
O148 O 0.76740 0.54776 0.35699 0.00000
O149 O 0.85937 0.64723 0.29346 0.00000
C150 C 0.73501 0.64103 0.41151 0.00000
C151 C 0.72945 0.70371 0.30123 0.00000
O152 O 0.86651 0.59394 0.34307 0.00000
C153 C 0.43196 0.64817 0.36853 0.00000
C154 C 0.27561 0.65149 0.45768 0.00000
Cd155 Cd 0.33839 0.66725 0.36631 0.00000
Cd156 Cd 0.21148 0.67986 0.38794 0.00000
C157 C 0.11586 0.68196 0.37748 0.00000
O158 O 0.30616 0.59753 0.37070 0.00000
O159 O 0.23220 0.61616 0.35051 0.00000
O160 O 0.25068 0.71604 0.33095 0.00000
O161 O 0.30915 0.67877 0.29737 0.00000
O162 O 0.41177 0.64495 0.33136 0.00000
O163 O 0.40991 0.65797 0.40398 0.00000
O164 O 0.29828 0.67809 0.43282 0.00000
O165 O 0.23260 0.64301 0.45224 0.00000
O166 O 0.14063 0.70654 0.35277 0.00000
C167 C 0.26499 0.58849 0.35897 0.00000
C168 C 0.27055 0.69877 0.29629 0.00000
O169 O 0.13349 0.65693 0.40606 0.00000
C170 C 0.43196 0.36853 0.35183 0.00000
C171 C 0.27561 0.45768 0.34851 0.00000
Cd172 Cd 0.33839 0.36631 0.33275 0.00000
Cd173 Cd 0.21148 0.38794 0.32014 0.00000
C174 C 0.11586 0.37748 0.31804 0.00000
O175 O 0.30616 0.37070 0.40247 0.00000
O176 O 0.23220 0.35051 0.38384 0.00000
O177 O 0.25068 0.33095 0.28396 0.00000
O178 O 0.30915 0.29737 0.32123 0.00000
O179 O 0.41177 0.33136 0.35505 0.00000
O180 O 0.40991 0.40398 0.34203 0.00000
O181 O 0.29828 0.43282 0.32191 0.00000
O182 O 0.23260 0.45224 0.35699 0.00000
O183 O 0.14063 0.35277 0.29346 0.00000
C184 C 0.26499 0.35897 0.41151 0.00000
C185 C 0.27055 0.29629 0.30123 0.00000
O186 O 0.13349 0.40606 0.34307 0.00000
C187 C 0.56804 0.64817 0.63147 0.00000
C188 C 0.72439 0.65149 0.54232 0.00000
Cd189 Cd 0.66161 0.66725 0.63369 0.00000
Cd190 Cd 0.78852 0.67986 0.61206 0.00000
C191 C 0.88414 0.68196 0.62252 0.00000
O192 O 0.69384 0.59753 0.62930 0.00000
O193 O 0.76780 0.61616 0.64949 0.00000
O194 O 0.74932 0.71604 0.66905 0.00000
O195 O 0.69085 0.67877 0.70263 0.00000
O196 O 0.58823 0.64495 0.66864 0.00000
O197 O 0.59009 0.65797 0.59602 0.00000
O198 O 0.70172 0.67809 0.56718 0.00000
O199 O 0.76740 0.64301 0.54776 0.00000
O200 O 0.85937 0.70654 0.64723 0.00000
C201 C 0.73501 0.58849 0.64103 0.00000
C202 C 0.72945 0.69877 0.70371 0.00000
O203 O 0.86651 0.65693 0.59394 0.00000
C204 C 0.43196 0.63147 0.64817 0.00000
C205 C 0.27561 0.54232 0.65149 0.00000
Cd206 Cd 0.33839 0.63369 0.66725 0.00000
Cd207 Cd 0.21148 0.61206 0.67986 0.00000
C208 C 0.11586 0.62252 0.68196 0.00000
O209 O 0.30616 0.62930 0.59753 0.00000
O210 O 0.23220 0.64949 0.61616 0.00000
O211 O 0.25068 0.66905 0.71604 0.00000
O212 O 0.30915 0.70263 0.67877 0.00000
O213 O 0.41177 0.66864 0.64495 0.00000
O214 O 0.40991 0.59602 0.65797 0.00000
O215 O 0.29828 0.56718 0.67809 0.00000
O216 O 0.23260 0.54776 0.64301 0.00000
O217 O 0.14063 0.64723 0.70654 0.00000
C218 C 0.26499 0.64103 0.58849 0.00000
C219 C 0.27055 0.70371 0.69877 0.00000
O220 O 0.13348 0.59394 0.65693 0.00000
C221 C 0.43196 0.35183 0.63147 0.00000
C222 C 0.27561 0.34851 0.54232 0.00000
Cd223 Cd 0.33839 0.33275 0.63369 0.00000
Cd224 Cd 0.21148 0.32014 0.61206 0.00000
C225 C 0.11586 0.31804 0.62252 0.00000
O226 O 0.30616 0.40247 0.62930 0.00000
O227 O 0.23220 0.38384 0.64949 0.00000
O228 O 0.25068 0.28396 0.66905 0.00000
O229 O 0.30915 0.32123 0.70263 0.00000
O230 O 0.41177 0.35505 0.66864 0.00000
O231 O 0.40991 0.34203 0.59602 0.00000
O232 O 0.29828 0.32191 0.56718 0.00000
O233 O 0.23260 0.35699 0.54776 0.00000
O234 O 0.14063 0.29346 0.64723 0.00000
C235 C 0.26499 0.41151 0.64103 0.00000
C236 C 0.27055 0.30123 0.70371 0.00000
O237 O 0.13349 0.34307 0.59394 0.00000
C238 C 0.56804 0.36853 0.64817 0.00000
C239 C 0.72439 0.45768 0.65149 0.00000
Cd240 Cd 0.66161 0.36631 0.66725 0.00000
Cd241 Cd 0.78852 0.38794 0.67986 0.00000
C242 C 0.88414 0.37748 0.68196 0.00000
O243 O 0.69384 0.37070 0.59753 0.00000
O244 O 0.76780 0.35051 0.61616 0.00000
O245 O 0.74932 0.33095 0.71604 0.00000
O246 O 0.69085 0.29737 0.67877 0.00000
O247 O 0.58823 0.33136 0.64495 0.00000
O248 O 0.59009 0.40398 0.65797 0.00000
O249 O 0.70172 0.43282 0.67809 0.00000
O250 O 0.76740 0.45224 0.64301 0.00000
O251 O 0.85937 0.35277 0.70654 0.00000
C252 C 0.73501 0.35897 0.58849 0.00000
C253 C 0.72945 0.29629 0.69877 0.00000
O254 O 0.86651 0.40606 0.65693 0.00000
C255 C 0.56804 0.35183 0.36853 0.00000
C256 C 0.72439 0.34851 0.45768 0.00000
Cd257 Cd 0.66161 0.33275 0.36631 0.00000
Cd258 Cd 0.78852 0.32014 0.38794 0.00000
C259 C 0.88414 0.31804 0.37748 0.00000
O260 O 0.69384 0.40247 0.37070 0.00000
O261 O 0.76780 0.38384 0.35051 0.00000
O262 O 0.74932 0.28396 0.33095 0.00000
O263 O 0.69085 0.32123 0.29737 0.00000
O264 O 0.58823 0.35505 0.33136 0.00000
O265 O 0.59009 0.34203 0.40398 0.00000
O266 O 0.70172 0.32191 0.43282 0.00000
O267 O 0.76740 0.35699 0.45224 0.00000
O268 O 0.85937 0.29346 0.35277 0.00000
C269 C 0.73501 0.41151 0.35897 0.00000
C270 C 0.72945 0.30123 0.29629 0.00000
O271 O 0.86651 0.34307 0.40606 0.00000
F272 F 0.70421 0.21816 0.70846 0.00000
C273 C 0.72914 0.25182 0.72777 0.00000
C274 C 0.77019 0.22942 0.75365 0.00000
F275 F 0.80056 0.21459 0.72231 0.00000
F276 F 0.70012 0.27234 0.75806 0.00000
F277 F 0.79258 0.26154 0.77791 0.00000
F278 F 0.69603 0.24526 0.26122 0.00000
C279 C 0.73901 0.26458 0.26337 0.00000
C280 C 0.76334 0.25546 0.21761 0.00000
F281 F 0.74176 0.28187 0.18719 0.00000
F282 F 0.76331 0.24277 0.29646 0.00000
F283 F 0.80850 0.26949 0.22042 0.00000
F284 F 0.75682 0.81165 0.28656 0.00000
C285 C 0.76658 0.78043 0.25468 0.00000
C286 C 0.73585 0.73872 0.26533 0.00000
F287 F 0.69151 0.75001 0.25460 0.00000
F288 F 0.81270 0.76896 0.25975 0.00000
F289 F 0.74878 0.70478 0.23748 0.00000
F290 F 0.24651 0.79169 0.26529 0.00000
C291 C 0.25393 0.76379 0.22995 0.00000
C292 C 0.24845 0.71509 0.24790 0.00000
F293 F 0.20233 0.70892 0.25542 0.00000
F294 F 0.29932 0.76999 0.21654 0.00000
F295 F 0.26122 0.68611 0.21487 0.00000
F296 F 0.20885 0.24120 0.30283 0.00000
C297 C 0.25271 0.24542 0.28580 0.00000
C298 C 0.24977 0.23258 0.23531 0.00000
F299 F 0.22735 0.26665 0.21461 0.00000
F300 F 0.28021 0.21461 0.30744 0.00000
F301 F 0.29391 0.23108 0.21839 0.00000
F302 F 0.70788 0.74254 0.80188 0.00000
C303 C 0.75224 0.74561 0.78580 0.00000
C304 C 0.75020 0.73234 0.73538 0.00000
F305 F 0.72913 0.76669 0.71387 0.00000
F306 F 0.77844 0.71441 0.80834 0.00000
F307 F 0.79469 0.72969 0.71947 0.00000
F308 F 0.30854 0.74784 0.74749 0.00000
C309 C 0.26395 0.73819 0.73503 0.00000
C310 C 0.23409 0.78056 0.74536 0.00000
F311 F 0.24611 0.81164 0.71451 0.00000
F312 F 0.24901 0.70375 0.76189 0.00000
F313 F 0.18830 0.77034 0.73848 0.00000
F314 F 0.22225 0.28737 0.80420 0.00000
C315 C 0.23026 0.25200 0.77650 0.00000
C316 C 0.26804 0.26729 0.74222 0.00000
F317 F 0.30878 0.26948 0.76500 0.00000
F318 F 0.18937 0.24390 0.75393 0.00000
F319 F 0.27285 0.23475 0.71059 0.00000
F320 F 0.70920 0.02731 0.86393 0.00000
C321 C 0.75359 0.04310 0.86793 0.00000
C322 C 0.78684 0.00392 0.85490 0.00000
F323 F 0.78317 0.99892 0.81003 0.00000
F324 F 0.76028 0.05326 0.91230 0.00000
F325 F 0.83157 0.01666 0.86374 0.00000
F326 F 0.02351 0.07767 0.11656 0.00000
C327 C 0.02234 0.12323 0.11574 0.00000
C328 C 0.97736 0.13770 0.14126 0.00000
F329 F 0.98549 0.12973 0.18515 0.00000
F330 F 0.01818 0.13574 0.07168 0.00000
F331 F 0.97193 0.18277 0.13645 0.00000
F332 F 0.71818 0.96619 0.11077 0.00000
C333 C 0.76004 0.95467 0.12903 0.00000
C334 C 0.78134 0.99823 0.14922 0.00000
F335 F 0.75604 0.00777 0.18625 0.00000
F336 F 0.78799 0.94040 0.09451 0.00000
F337 F 0.82572 0.98922 0.16293 0.00000
F338 F 0.98426 0.81564 0.14123 0.00000
C339 C 0.97692 0.86065 0.13972 0.00000
C340 C 0.02264 0.88216 0.12140 0.00000
F341 F 0.02457 0.87190 0.07732 0.00000
F342 F 0.97028 0.87466 0.18304 0.00000
F343 F 0.01875 0.92751 0.12456 0.00000
F344 F 0.28288 0.03326 0.11237 0.00000
C345 C 0.24047 0.04517 0.12913 0.00000
C346 C 0.21821 0.00193 0.14903 0.00000
F347 F 0.24212 0.99261 0.18695 0.00000
F348 F 0.21385 0.05926 0.09359 0.00000
F349 F 0.17342 0.01130 0.16119 0.00000
F350 F 0.98712 0.89095 0.81757 0.00000
C351 C 0.97805 0.86674 0.85520 0.00000
C352 C 0.02159 0.87141 0.88612 0.00000
F353 F 0.02084 0.91369 0.90232 0.00000
F354 F 0.97391 0.82281 0.84224 0.00000
F355 F 0.01626 0.84325 0.92165 0.00000
F356 F 0.27812 0.84975 0.98878 0.00000
C357 C 0.23169 0.85159 0.99834 0.00000
C358 C 0.22738 0.86702 0.04800 0.00000
F359 F 0.23899 0.91091 0.04874 0.00000
F360 F 0.21475 0.80873 0.99478 0.00000
F361 F 0.18174 0.86399 0.06048 0.00000
F362 F 0.79672 0.18774 0.04249 0.00000
C363 C 0.76151 0.15714 0.04119 0.00000
C364 C 0.77455 0.12247 0.00427 0.00000
F365 F 0.80996 0.09762 0.02101 0.00000
F366 F 0.72197 0.17960 0.02814 0.00000
F367 F 0.73756 0.09446 0.99814 0.00000
F368 F 0.73910 0.81021 0.97332 0.00000
C369 C 0.74966 0.85274 0.96041 0.00000
C370 C 0.78765 0.87023 0.99339 0.00000
F371 F 0.82755 0.84836 0.98298 0.00000
F372 F 0.70990 0.87782 0.96584 0.00000
F373 F 0.79499 0.91451 0.98498 0.00000
F374 F 0.19130 0.11245 0.94214 0.00000
C375 C 0.22224 0.14545 0.95256 0.00000
C376 C 0.23857 0.13672 0.00156 0.00000
F377 F 0.26681 0.10046 0.00010 0.00000
F378 F 0.19812 0.18516 0.95128 0.00000
F379 F 0.26513 0.17206 0.01510 0.00000
F380 F 0.67156 0.62694 0.47882 0.00000
C381 C 0.71641 0.62480 0.49375 0.00000
C382 C 0.74659 0.65246 0.46030 0.00000
F383 F 0.73626 0.69602 0.46777 0.00000
F384 F 0.72976 0.58071 0.49142 0.00000
F385 F 0.79243 0.64660 0.47097 0.00000
F386 F 0.32700 0.62185 0.52161 0.00000
C387 C 0.28239 0.62404 0.50605 0.00000
C388 C 0.25442 0.65340 0.53982 0.00000
F389 F 0.26899 0.69603 0.53363 0.00000
F390 F 0.26485 0.58127 0.50704 0.00000
F391 F 0.20839 0.65187 0.52840 0.00000
F392 F 0.24626 0.30692 0.47192 0.00000
C393 C 0.25048 0.35086 0.46049 0.00000
C394 C 0.28651 0.37189 0.49343 0.00000
F395 F 0.32882 0.35574 0.48144 0.00000
F396 F 0.20773 0.37038 0.46762 0.00000
F397 F 0.28741 0.41699 0.48662 0.00000
F398 F 0.52449 0.57661 0.62583 0.00000
C399 C 0.52266 0.62135 0.61731 0.00000
C400 C 0.47704 0.63920 0.63941 0.00000
F401 F 0.48453 0.63887 0.68412 0.00000
F402 F 0.51909 0.62618 0.57172 0.00000
F403 F 0.47103 0.68271 0.62697 0.00000
F404 F 0.22049 0.51068 0.64462 0.00000
C405 C 0.26702 0.50187 0.64754 0.00000
C406 C 0.27370 0.45188 0.63404 0.00000
F407 F 0.26677 0.44974 0.58930 0.00000
F408 F 0.27930 0.50689 0.69169 0.00000
F409 F 0.31897 0.44026 0.64182 0.00000
F410 F 0.47581 0.42322 0.62278 0.00000
C411 C 0.47744 0.37806 0.61676 0.00000
C412 C 0.52286 0.36125 0.64004 0.00000
F413 F 0.51514 0.36410 0.68463 0.00000
F414 F 0.48123 0.37070 0.57153 0.00000
F415 F 0.52869 0.31709 0.63007 0.00000
F416 F 0.69163 0.54737 0.67691 0.00000
C417 C 0.73417 0.54233 0.65723 0.00000
C418 C 0.72954 0.50305 0.62318 0.00000
F419 F 0.70377 0.51877 0.58865 0.00000
F420 F 0.76483 0.52996 0.69033 0.00000
F421 F 0.77277 0.49337 0.60680 0.00000
F422 F 0.51939 0.40692 0.41159 0.00000
C423 C 0.52133 0.36870 0.38682 0.00000
C424 C 0.47841 0.36949 0.35477 0.00000
F425 F 0.48759 0.40094 0.32340 0.00000
F426 F 0.51643 0.33355 0.41607 0.00000
F427 F 0.47593 0.32930 0.33332 0.00000
F428 F 0.78963 0.47115 0.37152 0.00000
C429 C 0.74478 0.45627 0.36911 0.00000
C430 C 0.71447 0.49667 0.35346 0.00000
F431 F 0.72456 0.50321 0.30970 0.00000
F432 F 0.73168 0.44466 0.41178 0.00000
F433 F 0.66865 0.48466 0.35592 0.00000
F434 F 0.48735 0.68071 0.39503 0.00000
C435 C 0.47819 0.64521 0.36783 0.00000
C436 C 0.52146 0.61369 0.37029 0.00000
F437 F 0.52026 0.59418 0.41114 0.00000
F438 F 0.47449 0.66167 0.32505 0.00000
F439 F 0.51610 0.58057 0.33935 0.00000
F440 F 0.21982 0.49168 0.37112 0.00000
C441 C 0.26400 0.49781 0.35548 0.00000
C442 C 0.27602 0.54820 0.36255 0.00000
F443 F 0.28227 0.55384 0.40708 0.00000
F444 F 0.26297 0.48905 0.31036 0.00000
F445 F 0.31771 0.55684 0.34234 0.00000
F446 F 0.71407 0.30668 0.53870 0.00000
C447 C 0.74166 0.34375 0.54048 0.00000
C448 C 0.72228 0.37726 0.50508 0.00000
F449 F 0.68168 0.39325 0.52178 0.00000
F450 F 0.78566 0.33070 0.52775 0.00000
F451 F 0.75234 0.41248 0.50198 0.00000
F452 F 0.18049 0.97803 0.89288 0.00000
C453 C 0.22170 0.99479 0.87756 0.00000
C454 C 0.24196 0.95958 0.84433 0.00000
F455 F 0.21523 0.96163 0.80706 0.00000
F456 F 0.25101 0.99802 0.91379 0.00000
F457 F 0.28585 0.97257 0.83249 0.00000
F458 F 0.98708 0.18273 0.89013 0.00000
C459 C 0.97802 0.14471 0.86653 0.00000
C460 C 0.02161 0.11392 0.87162 0.00000
F461 F 0.02095 0.09840 0.91416 0.00000
F462 F 0.97380 0.15697 0.82241 0.00000
F463 F 0.01629 0.07795 0.84404 0.00000
loop_
_geom_bond_atom_site_label_1
_geom_bond_atom_site_label_2
_geom_bond_distance
_geom_bond_site_symmetry_2
_ccdc_geom_bond_type
C0 O9 1.241 . A
C0 O10 1.253 . A
C1 O11 1.252 . A
C1 O12 1.254 . A
Cd2 O5 2.255 . S
Cd2 O8 2.223 . S
Cd2 O9 2.412 . S
Cd2 O10 2.327 . S
Cd2 O11 2.291 . S
Cd3 O6 2.259 . S
Cd3 O7 2.281 . S
Cd3 O12 2.268 . S
Cd3 O13 2.392 . S
Cd3 O16 2.371 . S
C4 O13 1.245 . A
C4 O16 1.228 . A
O5 C14 1.245 . A
O6 C14 1.262 . A
O7 C15 1.274 . A
O8 C15 1.243 . A
C17 O26 1.241 . A
C17 O27 1.253 . A
C18 O28 1.252 . A
C18 O29 1.254 . A
Cd19 O22 2.255 . S
Cd19 O25 2.223 . S
Cd19 O26 2.412 . S
Cd19 O27 2.327 . S
Cd19 O28 2.291 . S
Cd20 O23 2.259 . S
Cd20 O24 2.281 . S
Cd20 O29 2.268 . S
Cd20 O30 2.392 . S
Cd20 O33 2.371 . S
C21 O30 1.245 . A
C21 O33 1.228 . A
O22 C31 1.245 . A
O23 C31 1.262 . A
O24 C32 1.274 . A
O25 C32 1.243 . A
C34 O43 1.241 . A
C34 O44 1.253 . A
C35 O45 1.252 . A
C35 O46 1.254 . A
Cd36 O39 2.255 . S
Cd36 O42 2.223 . S
Cd36 O43 2.412 . S
Cd36 O44 2.327 . S
Cd36 O45 2.291 . S
Cd37 O40 2.259 . S
Cd37 O41 2.281 . S
Cd37 O46 2.268 . S
Cd37 O47 2.392 . S
Cd37 O50 2.371 . S
C38 O47 1.245 . A
C38 O50 1.228 . A
O39 C48 1.245 . A
O40 C48 1.262 . A
O41 C49 1.274 . A
O42 C49 1.243 . A
C51 O60 1.241 . A
C51 O61 1.253 . A
C52 O62 1.252 . A
C52 O63 1.254 . A
Cd53 O56 2.255 . S
Cd53 O59 2.223 . S
Cd53 O60 2.412 . S
Cd53 O61 2.327 . S
Cd53 O62 2.291 . S
Cd54 O57 2.259 . S
Cd54 O58 2.281 . S
Cd54 O63 2.268 . S
Cd54 O64 2.392 . S
Cd54 O67 2.371 . S
C55 O64 1.245 . A
C55 O67 1.228 . A
O56 C65 1.245 . A
O57 C65 1.262 . A
O58 C66 1.274 . A
O59 C66 1.243 . A
C68 O77 1.241 . A
C68 O78 1.253 . A
C69 O79 1.252 . A
C69 O80 1.254 . A
Cd70 O73 2.255 . S
Cd70 O76 2.223 . S
Cd70 O77 2.412 . S
Cd70 O78 2.327 . S
Cd70 O79 2.291 . S
Cd71 O74 2.259 . S
Cd71 O75 2.281 . S
Cd71 O80 2.268 . S
Cd71 O81 2.392 . S
Cd71 O84 2.371 . S
C72 O81 1.245 . A
C72 O84 1.228 . A
O73 C82 1.245 . A
O74 C82 1.262 . A
O75 C83 1.274 . A
O76 C83 1.243 . A
C85 O94 1.241 . A
C85 O95 1.253 . A
C86 O96 1.252 . A
C86 O97 1.254 . A
Cd87 O90 2.255 . S
Cd87 O93 2.223 . S
Cd87 O94 2.412 . S
Cd87 O95 2.327 . S
Cd87 O96 2.291 . S
Cd88 O91 2.259 . S
Cd88 O92 2.281 . S
Cd88 O97 2.268 . S
Cd88 O98 2.392 . S
Cd88 O101 2.371 . S
C89 O98 1.245 . A
C89 O101 1.228 . A
O90 C99 1.245 . A
O91 C99 1.262 . A
O92 C100 1.274 . A
O93 C100 1.243 . A
C102 O111 1.241 . A
C102 O112 1.253 . A
C103 O113 1.252 . A
C103 O114 1.254 . A
Cd104 O107 2.255 . S
Cd104 O110 2.223 . S
Cd104 O111 2.412 . S
Cd104 O112 2.327 . S
Cd104 O113 2.291 . S
Cd105 O108 2.259 . S
Cd105 O109 2.281 . S
Cd105 O114 2.268 . S
Cd105 O115 2.392 . S
Cd105 O118 2.371 . S
C106 O115 1.245 . A
C106 O118 1.228 . A
O107 C116 1.245 . A
O108 C116 1.262 . A
O109 C117 1.274 . A
O110 C117 1.243 . A
C119 O128 1.241 . A
C119 O129 1.253 . A
C120 O130 1.252 . A
C120 O131 1.254 . A
Cd121 O124 2.255 . S
Cd121 O127 2.223 . S
Cd121 O128 2.412 . S
Cd121 O129 2.327 . S
Cd121 O130 2.291 . S
Cd122 O125 2.259 . S
Cd122 O126 2.281 . S
Cd122 O131 2.268 . S
Cd122 O132 2.392 . S
Cd122 O135 2.371 . S
C123 O132 1.245 . A
C123 O135 1.228 . A
O124 C133 1.245 . A
O125 C133 1.262 . A
O126 C134 1.274 . A
O127 C134 1.243 . A
C136 O145 1.241 . A
C136 O146 1.253 . A
C137 O147 1.252 . A
C137 O148 1.254 . A
Cd138 O141 2.255 . S
Cd138 O144 2.223 . S
Cd138 O145 2.412 . S
Cd138 O146 2.327 . S
Cd138 O147 2.291 . S
Cd139 O142 2.259 . S
Cd139 O143 2.281 . S
Cd139 O148 2.268 . S
Cd139 O149 2.392 . S
Cd139 O152 2.371 . S
C140 O149 1.245 . A
C140 O152 1.228 . A
O141 C150 1.245 . A
O142 C150 1.262 . A
O143 C151 1.274 . A
O144 C151 1.243 . A
C153 O162 1.241 . A
C153 O163 1.253 . A
C154 O164 1.252 . A
C154 O165 1.254 . A
Cd155 O158 2.255 . S
Cd155 O161 2.223 . S
Cd155 O162 2.412 . S
Cd155 O163 2.327 . S
Cd155 O164 2.291 . S
Cd156 O159 2.259 . S
Cd156 O160 2.281 . S
Cd156 O165 2.268 . S
Cd156 O166 2.392 . S
Cd156 O169 2.371 . S
C157 O166 1.245 . A
C157 O169 1.228 . A
O158 C167 1.245 . A
O159 C167 1.262 . A
O160 C168 1.274 . A
O161 C168 1.243 . A
C170 O179 1.241 . A
C170 O180 1.253 . A
C171 O181 1.252 . A
C171 O182 1.254 . A
Cd172 O175 2.255 . S
Cd172 O178 2.223 . S
Cd172 O179 2.412 . S
Cd172 O180 2.327 . S
Cd172 O181 2.291 . S
Cd173 O176 2.259 . S
Cd173 O177 2.281 . S
Cd173 O182 2.268 . S
Cd173 O183 2.392 . S
Cd173 O186 2.371 . S
C174 O183 1.245 . A
C174 O186 1.228 . A
O175 C184 1.245 . A
O176 C184 1.262 . A
O177 C185 1.274 . A
O178 C185 1.243 . A
C187 O196 1.241 . A
C187 O197 1.253 . A
C188 O198 1.252 . A
C188 O199 1.254 . A
Cd189 O192 2.255 . S
Cd189 O195 2.223 . S
Cd189 O196 2.412 . S
Cd189 O197 2.327 . S
Cd189 O198 2.291 . S
Cd190 O193 2.259 . S
Cd190 O194 2.281 . S
Cd190 O199 2.268 . S
Cd190 O200 2.392 . S
Cd190 O203 2.371 . S
C191 O200 1.245 . A
C191 O203 1.228 . A
O192 C201 1.245 . A
O193 C201 1.262 . A
O194 C202 1.274 . A
O195 C202 1.243 . A
C204 O213 1.241 . A
C204 O214 1.253 . A
C205 O215 1.252 . A
C205 O216 1.254 . A
Cd206 O209 2.255 . S
Cd206 O212 2.223 . S
Cd206 O213 2.412 . S
Cd206 O214 2.327 . S
Cd206 O215 2.291 . S
Cd207 O210 2.259 . S
Cd207 O211 2.281 . S
Cd207 O216 2.268 . S
Cd207 O217 2.392 . S
Cd207 O220 2.371 . S
C208 O217 1.245 . A
C208 O220 1.228 . A
O209 C218 1.245 . A
O210 C218 1.262 . A
O211 C219 1.274 . A
O212 C219 1.243 . A
C221 O230 1.241 . A
C221 O231 1.253 . A
C222 O232 1.252 . A
C222 O233 1.254 . A
Cd223 O226 2.255 . S
Cd223 O229 2.223 . S
Cd223 O230 2.412 . S
Cd223 O231 2.327 . S
Cd223 O232 2.291 . S
Cd224 O227 2.259 . S
Cd224 O228 2.281 . S
Cd224 O233 2.268 . S
Cd224 O234 2.392 . S
Cd224 O237 2.371 . S
C225 O234 1.245 . A
C225 O237 1.228 . A
O226 C235 1.245 . A
O227 C235 1.262 . A
O228 C236 1.274 . A
O229 C236 1.243 . A
C238 O247 1.241 . A
C238 O248 1.253 . A
C239 O249 1.252 . A
C239 O250 1.254 . A
Cd240 O243 2.255 . S
Cd240 O246 2.223 . S
Cd240 O247 2.412 . S
Cd240 O248 2.327 . S
Cd240 O249 2.291 . S
Cd241 O244 2.259 . S
Cd241 O245 2.281 . S
Cd241 O250 2.268 . S
Cd241 O251 2.392 . S
Cd241 O254 2.371 . S
C242 O251 1.245 . A
C242 O254 1.228 . A
O243 C252 1.245 . A
O244 C252 1.262 . A
O245 C253 1.274 . A
O246 C253 1.243 . A
C255 O264 1.241 . A
C255 O265 1.253 . A
C256 O266 1.252 . A
C256 O267 1.254 . A
Cd257 O260 2.255 . S
Cd257 O263 2.223 . S
Cd257 O264 2.412 . S
Cd257 O265 2.327 . S
Cd257 O266 2.291 . S
Cd258 O261 2.259 . S
Cd258 O262 2.281 . S
Cd258 O267 2.268 . S
Cd258 O268 2.392 . S
Cd258 O271 2.371 . S
C259 O268 1.245 . A
C259 O271 1.228 . A
O260 C269 1.245 . A
O261 C269 1.262 . A
O262 C270 1.274 . A
O263 C270 1.243 . A
F272 C273 1.346 . S
C273 C274 1.540 . S
C273 F276 1.357 . S
C274 F275 1.337 . S
C274 F277 1.347 . S
F278 C279 1.346 . S
C279 C280 1.540 . S
C279 F282 1.357 . S
C280 F281 1.337 . S
C280 F283 1.347 . S
F284 C285 1.346 . S
C285 C286 1.540 . S
C285 F288 1.357 . S
C286 F287 1.337 . S
C286 F289 1.347 . S
F290 C291 1.346 . S
C291 C292 1.540 . S
C291 F294 1.357 . S
C292 F293 1.337 . S
C292 F295 1.347 . S
F296 C297 1.346 . S
C297 C298 1.540 . S
C297 F300 1.357 . S
C298 F299 1.337 . S
C298 F301 1.347 . S
F302 C303 1.346 . S
C303 C304 1.540 . S
C303 F306 1.357 . S
C304 F305 1.337 . S
C304 F307 1.347 . S
F308 C309 1.346 . S
C309 C310 1.540 . S
C309 F312 1.357 . S
C310 F311 1.337 . S
C310 F313 1.347 . S
F314 C315 1.346 . S
C315 C316 1.540 . S
C315 F318 1.357 . S
C316 F317 1.337 . S
C316 F319 1.347 . S
F320 C321 1.346 . S
C321 C322 1.540 . S
C321 F324 1.357 . S
C322 F323 1.337 1_545 S
C322 F325 1.347 . S
F326 C327 1.346 . S
C327 C328 1.540 1_455 S
C327 F330 1.357 . S
C328 F329 1.337 . S
C328 F331 1.347 . S
F332 C333 1.346 . S
C333 C334 1.540 . S
C333 F336 1.357 . S
C334 F335 1.337 1_565 S
C334 F337 1.347 . S
F338 C339 1.346 . S
C339 C340 1.540 1_655 S
C339 F342 1.357 . S
C340 F341 1.337 . S
C340 F343 1.347 . S
F344 C345 1.346 . S
C345 C346 1.540 . S
C345 F348 1.357 . S
C346 F347 1.337 1_545 S
C346 F349 1.347 . S
F350 C351 1.346 . S
C351 C352 1.540 1_655 S
C351 F354 1.357 . S
C352 F353 1.337 . S
C352 F355 1.347 . S
F356 C357 1.346 . S
C357 C358 1.540 1_556 S
C357 F360 1.357 . S
C358 F359 1.337 . S
C358 F361 1.347 . S
F362 C363 1.346 . S
C363 C364 1.540 . S
C363 F366 1.357 . S
C364 F365 1.337 . S
C364 F367 1.347 1_554 S
F368 C369 1.346 . S
C369 C370 1.540 . S
C369 F372 1.357 . S
C370 F371 1.337 . S
C370 F373 1.347 . S
F374 C375 1.346 . S
C375 C376 1.540 1_556 S
C375 F378 1.357 . S
C376 F377 1.337 . S
C376 F379 1.347 . S
F380 C381 1.346 . S
C381 C382 1.540 . S
C381 F384 1.357 . S
C382 F383 1.337 . S
C382 F385 1.347 . S
F386 C387 1.346 . S
C387 C388 1.540 . S
C387 F390 1.357 . S
C388 F389 1.337 . S
C388 F391 1.347 . S
F392 C393 1.346 . S
C393 C394 1.540 . S
C393 F396 1.357 . S
C394 F395 1.337 . S
C394 F397 1.347 . S
F398 C399 1.346 . S
C399 C400 1.540 . S
C399 F402 1.357 . S
C400 F401 1.337 . S
C400 F403 1.347 . S
F404 C405 1.346 . S
C405 C406 1.540 . S
C405 F408 1.357 . S
C406 F407 1.337 . S
C406 F409 1.347 . S
F410 C411 1.346 . S
C411 C412 1.540 . S
C411 F414 1.357 . S
C412 F413 1.337 . S
C412 F415 1.347 . S
F416 C417 1.346 . S
C417 C418 1.540 . S
C417 F420 1.357 . S
C418 F419 1.337 . S
C418 F421 1.347 . S
F422 C423 1.346 . S
C423 C424 1.540 . S
C423 F426 1.357 . S
C424 F425 1.337 . S
C424 F427 1.347 . S
F428 C429 1.346 . S
C429 C430 1.540 . S
C429 F432 1.357 . S
C430 F431 1.337 . S
C430 F433 1.347 . S
F434 C435 1.346 . S
C435 C436 1.540 . S
C435 F438 1.357 . S
C436 F437 1.337 . S
C436 F439 1.347 . S
F440 C441 1.346 . S
C441 C442 1.540 . S
C441 F444 1.357 . S
C442 F443 1.337 . S
C442 F445 1.347 . S
F446 C447 1.346 . S
C447 C448 1.540 . S
C447 F450 1.357 . S
C448 F449 1.337 . S
C448 F451 1.347 . S
F452 C453 1.346 . S
C453 C454 1.540 . S
C453 F456 1.357 . S
C454 F455 1.337 . S
C454 F457 1.347 . S
F458 C459 1.346 . S
C459 C460 1.540 1_655 S
C459 F462 1.357 . S
C460 F461 1.337 . S
C460 F463 1.347 . S
C273 C253 1.567 . S
C274 C15 1.551 . S
C279 C270 1.479 . S
C280 C32 1.639 . S
C285 C49 1.629 . S
C286 C151 1.492 . S
C291 C66 1.499 . S
C292 C168 1.632 . S
C297 C185 1.649 . S
C298 C83 1.483 . S
C303 C100 1.648 . S
C304 C202 1.484 . S
C309 C219 1.489 . S
C310 C117 1.628 . S
C315 C134 1.602 . S
C316 C236 1.517 . S
C321 C14 1.404 . S
C322 C86 1.415 1_545 S
C327 C68 1.560 . S
C328 C17 1.315 . S
C333 C48 1.330 . S
C334 C18 1.314 1_565 S
C339 C34 1.322 . S
C340 C51 1.562 . S
C345 C82 1.335 . S
C346 C52 1.320 1_545 S
C351 C85 1.310 . S
C352 C102 1.528 . S
C357 C103 1.222 . S
C358 C65 1.238 . S
C363 C31 1.479 . S
C364 C1 1.621 1_554 S
C369 C99 1.519 . S
C370 C35 1.617 1_556 S
C375 C133 1.272 . S
C376 C69 1.342 . S
C381 C188 1.652 . S
C382 C150 1.516 . S
C387 C154 1.653 . S
C388 C218 1.513 . S
C393 C184 1.522 . S
C394 C222 1.630 . S
C399 C187 1.566 . S
C400 C204 1.322 . S
C405 C205 1.225 . S
C406 C235 1.235 . S
C411 C221 1.564 . S
C412 C238 1.319 . S
C417 C201 1.445 . S
C418 C239 1.586 . S
C423 C255 1.513 . S
C424 C170 1.319 . S
C429 C269 1.383 . S
C430 C137 1.385 . S
C435 C153 1.312 . S
C436 C136 1.521 . S
C441 C171 1.247 . S
C442 C167 1.235 . S
C447 C252 1.499 . S
C448 C256 1.638 . S
C453 C120 1.647 1_565 S
C454 C116 1.497 . S
C459 C0 1.310 . S
C460 C119 1.529 . S
