# Generated by pormake.
# Topology pcb, (4)-cn, num edge types: 1
# Building blocks:
#     Node 0, Type 0, BuildingBlock: N385, # of connection points: 4
#     Node 1, Type 0, BuildingBlock: N385, # of connection points: 4
#     Node 2, Type 0, BuildingBlock: N385, # of connection points: 4
#     Node 3, Type 0, BuildingBlock: N385, # of connection points: 4
#     Node 4, Type 0, BuildingBlock: N385, # of connection points: 4
#     Node 5, Type 0, BuildingBlock: N385, # of connection points: 4
#     Node 6, Type 0, BuildingBlock: N385, # of connection points: 4
#     Node 7, Type 0, BuildingBlock: N385, # of connection points: 4
#     Node 8, Type 0, BuildingBlock: N385, # of connection points: 4
#     Node 9, Type 0, BuildingBlock: N385, # of connection points: 4
#     Node 10, Type 0, BuildingBlock: N385, # of connection points: 4
#     Node 11, Type 0, BuildingBlock: N385, # of connection points: 4
#     Node 12, Type 0, BuildingBlock: N385, # of connection points: 4
#     Node 13, Type 0, BuildingBlock: N385, # of connection points: 4
#     Node 14, Type 0, BuildingBlock: N385, # of connection points: 4
#     Node 15, Type 0, BuildingBlock: N385, # of connection points: 4
#     Edge 16, Type (0, 0), BuildingBlock: E160, # of connection points: 2
#     Edge 17, Type (0, 0), BuildingBlock: E160, # of connection points: 2
#     Edge 18, Type (0, 0), BuildingBlock: E160, # of connection points: 2
#     Edge 19, Type (0, 0), BuildingBlock: E160, # of connection points: 2
#     Edge 20, Type (0, 0), BuildingBlock: E160, # of connection points: 2
#     Edge 21, Type (0, 0), BuildingBlock: E160, # of connection points: 2
#     Edge 22, Type (0, 0), BuildingBlock: E160, # of connection points: 2
#     Edge 23, Type (0, 0), BuildingBlock: E160, # of connection points: 2
#     Edge 24, Type (0, 0), BuildingBlock: E160, # of connection points: 2
#     Edge 25, Type (0, 0), BuildingBlock: E160, # of connection points: 2
#     Edge 26, Type (0, 0), BuildingBlock: E160, # of connection points: 2
#     Edge 27, Type (0, 0), BuildingBlock: E160, # of connection points: 2
#     Edge 28, Type (0, 0), BuildingBlock: E160, # of connection points: 2
#     Edge 29, Type (0, 0), BuildingBlock: E160, # of connection points: 2
#     Edge 30, Type (0, 0), BuildingBlock: E160, # of connection points: 2
#     Edge 31, Type (0, 0), BuildingBlock: E160, # of connection points: 2
#     Edge 32, Type (0, 0), BuildingBlock: E160, # of connection points: 2
#     Edge 33, Type (0, 0), BuildingBlock: E160, # of connection points: 2
#     Edge 34, Type (0, 0), BuildingBlock: E160, # of connection points: 2
#     Edge 35, Type (0, 0), BuildingBlock: E160, # of connection points: 2
#     Edge 36, Type (0, 0), BuildingBlock: E160, # of connection points: 2
#     Edge 37, Type (0, 0), BuildingBlock: E160, # of connection points: 2
#     Edge 38, Type (0, 0), BuildingBlock: E160, # of connection points: 2
#     Edge 39, Type (0, 0), BuildingBlock: E160, # of connection points: 2
#     Edge 40, Type (0, 0), BuildingBlock: E160, # of connection points: 2
#     Edge 41, Type (0, 0), BuildingBlock: E160, # of connection points: 2
#     Edge 42, Type (0, 0), BuildingBlock: E160, # of connection points: 2
#     Edge 43, Type (0, 0), BuildingBlock: E160, # of connection points: 2
#     Edge 44, Type (0, 0), BuildingBlock: E160, # of connection points: 2
#     Edge 45, Type (0, 0), BuildingBlock: E160, # of connection points: 2
#     Edge 46, Type (0, 0), BuildingBlock: E160, # of connection points: 2
#     Edge 47, Type (0, 0), BuildingBlock: E160, # of connection points: 2
# Relax obj value: 0.311
# Max RMSD: 0.194
# Mean RMSD: 0.163
data_pcb+N385+E160
_symmetry_space_group_name_H-M    P1
_symmetry_Int_Tables_number       1
_symmetry_cell_setting            triclinic
loop_
_symmetry_equiv_pos_as_xyz
'x, y, z'
_cell_length_a     39.185
_cell_length_b     36.573
_cell_length_c     38.774
_cell_angle_alpha  100.634
_cell_angle_beta   90.749
_cell_angle_gamma  92.925
loop_
_atom_site_label
_atom_site_type_symbol
_atom_site_fract_x
_atom_site_fract_y
_atom_site_fract_z
_atom_type_partial_charge
C0 C 0.91324 0.17666 0.81947 0.00000
O1 O 0.80678 0.20653 0.81026 0.00000
O2 O 0.83580 0.18626 0.87728 0.00000
C3 C 0.81222 0.10447 0.82308 0.00000
O4 O 0.87581 0.15012 0.89213 0.00000
C5 C 0.81066 0.19345 0.77796 0.00000
O6 O 0.82855 0.16668 0.76768 0.00000
Zn7 Zn 0.88927 0.10814 0.85107 0.00000
C8 C 0.85190 0.17146 0.89889 0.00000
Zn9 Zn 0.83935 0.16968 0.82574 0.00000
O10 O 0.79240 0.13052 0.82970 0.00000
O11 O 0.84408 0.11148 0.81980 0.00000
O12 O 0.88596 0.19293 0.81842 0.00000
O13 O 0.91629 0.14442 0.82526 0.00000
C14 C 0.84583 0.17911 0.09124 0.00000
O15 O 0.83761 0.22554 0.20348 0.00000
O16 O 0.90243 0.19090 0.17292 0.00000
C17 C 0.84908 0.11927 0.18743 0.00000
O18 O 0.91636 0.14645 0.12835 0.00000
C19 C 0.80607 0.21658 0.19746 0.00000
O20 O 0.79575 0.18846 0.17607 0.00000
Zn21 Zn 0.87600 0.10813 0.10928 0.00000
C22 C 0.92323 0.17041 0.15528 0.00000
Zn23 Zn 0.85217 0.18131 0.16648 0.00000
O24 O 0.85584 0.14746 0.21065 0.00000
O25 O 0.84583 0.12247 0.15539 0.00000
O26 O 0.84508 0.19956 0.12093 0.00000
O27 O 0.85114 0.14509 0.08482 0.00000
C28 C 0.92067 0.83575 0.19218 0.00000
O29 O 0.81167 0.81006 0.20667 0.00000
O30 O 0.83746 0.83907 0.14229 0.00000
C31 C 0.83036 0.91503 0.20667 0.00000
O32 O 0.88095 0.87566 0.12902 0.00000
C33 C 0.82018 0.81822 0.23900 0.00000
O34 O 0.84261 0.84278 0.25065 0.00000
Zn35 Zn 0.90383 0.91123 0.17253 0.00000
C36 C 0.85363 0.85641 0.12197 0.00000
Zn37 Zn 0.84783 0.84789 0.19355 0.00000
O38 O 0.80645 0.89076 0.19880 0.00000
O39 O 0.86126 0.90565 0.20613 0.00000
O40 O 0.89141 0.82064 0.19356 0.00000
O41 O 0.92776 0.86910 0.19039 0.00000
C42 C 0.09306 0.80319 0.15153 0.00000
O43 O 0.20218 0.79411 0.17382 0.00000
O44 O 0.17548 0.86054 0.14637 0.00000
C45 C 0.18439 0.79230 0.07505 0.00000
O46 O 0.13205 0.87189 0.11253 0.00000
C47 C 0.19429 0.75940 0.16656 0.00000
O48 O 0.17227 0.74566 0.14389 0.00000
Zn49 Zn 0.11024 0.82435 0.07976 0.00000
C50 C 0.15910 0.88100 0.13013 0.00000
Zn51 Zn 0.16609 0.80570 0.13868 0.00000
O52 O 0.20797 0.80213 0.09744 0.00000
O53 O 0.15338 0.79122 0.08449 0.00000
O54 O 0.12224 0.80347 0.16525 0.00000
O55 O 0.08623 0.80444 0.12015 0.00000
C56 C 0.09759 0.16389 0.14264 0.00000
O57 O 0.20610 0.19859 0.16267 0.00000
O58 O 0.17860 0.16074 0.09016 0.00000
C59 C 0.19270 0.09147 0.13544 0.00000
O60 O 0.13628 0.11952 0.06768 0.00000
C61 C 0.19957 0.19325 0.19340 0.00000
O62 O 0.17893 0.16823 0.19906 0.00000
Zn63 Zn 0.11731 0.08678 0.10276 0.00000
C64 C 0.16230 0.14000 0.06523 0.00000
Zn65 Zn 0.17118 0.15663 0.13993 0.00000
O66 O 0.21503 0.11670 0.13351 0.00000
O67 O 0.16127 0.09882 0.13773 0.00000
O68 O 0.12618 0.18122 0.14762 0.00000
O69 O 0.09210 0.12959 0.13219 0.00000
C70 C 0.81560 0.85046 0.94338 0.00000
O71 O 0.80140 0.80454 0.83089 0.00000
O72 O 0.86889 0.84287 0.86180 0.00000
C73 C 0.81809 0.91168 0.84799 0.00000
O74 O 0.88634 0.88783 0.90674 0.00000
C75 C 0.77042 0.81159 0.83695 0.00000
O76 O 0.76207 0.83896 0.85857 0.00000
Zn77 Zn 0.84827 0.92366 0.92612 0.00000
C78 C 0.89123 0.86448 0.87963 0.00000
Zn79 Zn 0.81921 0.84941 0.86827 0.00000
O80 O 0.82281 0.88404 0.82454 0.00000
O81 O 0.81581 0.90794 0.87993 0.00000
O82 O 0.81291 0.83021 0.91354 0.00000
O83 O 0.82263 0.88485 0.95012 0.00000
C84 C 0.15359 0.91080 0.84430 0.00000
O85 O 0.16260 0.79207 0.80080 0.00000
O86 O 0.09861 0.82146 0.83794 0.00000
C87 C 0.15497 0.80964 0.90190 0.00000
O88 O 0.08542 0.86834 0.88054 0.00000
C89 C 0.19427 0.80014 0.80696 0.00000
O90 O 0.20515 0.82359 0.83259 0.00000
Zn91 Zn 0.12672 0.89099 0.91368 0.00000
C92 C 0.07826 0.83927 0.85864 0.00000
Zn93 Zn 0.14895 0.83093 0.84333 0.00000
O94 O 0.14766 0.78444 0.87595 0.00000
O95 O 0.15733 0.84363 0.89836 0.00000
O96 O 0.15424 0.87922 0.82518 0.00000
O97 O 0.14949 0.91769 0.87677 0.00000
C98 C 0.08440 0.16398 0.81008 0.00000
O99 O 0.19285 0.17433 0.78427 0.00000
O100 O 0.16154 0.10535 0.80825 0.00000
C101 C 0.18129 0.16910 0.88228 0.00000
O102 O 0.11915 0.09161 0.84260 0.00000
C103 C 0.18873 0.20891 0.79390 0.00000
O104 O 0.16943 0.22124 0.81794 0.00000
Zn105 Zn 0.10390 0.13735 0.87868 0.00000
C106 C 0.14422 0.08357 0.82362 0.00000
Zn107 Zn 0.15785 0.16023 0.81960 0.00000
O108 O 0.20253 0.16070 0.85868 0.00000
O109 O 0.14985 0.17099 0.87432 0.00000
O110 O 0.11266 0.16457 0.79538 0.00000
O111 O 0.07937 0.16047 0.84115 0.00000
C112 C 0.58440 0.66398 0.31008 0.00000
O113 O 0.69285 0.67434 0.28427 0.00000
O114 O 0.66154 0.60535 0.30824 0.00000
C115 C 0.68129 0.66910 0.38228 0.00000
O116 O 0.61915 0.59162 0.34259 0.00000
C117 C 0.68873 0.70891 0.29389 0.00000
O118 O 0.66943 0.72124 0.31794 0.00000
Zn119 Zn 0.60391 0.63736 0.37868 0.00000
C120 C 0.64422 0.58357 0.32362 0.00000
Zn121 Zn 0.65785 0.66023 0.31959 0.00000
O122 O 0.70253 0.66070 0.35868 0.00000
O123 O 0.64985 0.67099 0.37432 0.00000
O124 O 0.61266 0.66457 0.29538 0.00000
O125 O 0.57937 0.66047 0.34114 0.00000
C126 C 0.41324 0.67666 0.31947 0.00000
O127 O 0.30678 0.70653 0.31027 0.00000
O128 O 0.33580 0.68626 0.37728 0.00000
C129 C 0.31222 0.60447 0.32309 0.00000
O130 O 0.37581 0.65012 0.39214 0.00000
C131 C 0.31066 0.69345 0.27796 0.00000
O132 O 0.32855 0.66667 0.26768 0.00000
Zn133 Zn 0.38927 0.60814 0.35108 0.00000
C134 C 0.35190 0.67146 0.39889 0.00000
Zn135 Zn 0.33935 0.66968 0.32575 0.00000
O136 O 0.29240 0.63052 0.32970 0.00000
O137 O 0.34408 0.61148 0.31980 0.00000
O138 O 0.38596 0.69293 0.31842 0.00000
O139 O 0.41629 0.64442 0.32526 0.00000
C140 C 0.31560 0.35047 0.44337 0.00000
O141 O 0.30140 0.30455 0.33088 0.00000
O142 O 0.36889 0.34287 0.36180 0.00000
C143 C 0.31809 0.41168 0.34799 0.00000
O144 O 0.38634 0.38783 0.40674 0.00000
C145 C 0.27042 0.31159 0.33694 0.00000
O146 O 0.26207 0.33896 0.35857 0.00000
Zn147 Zn 0.34827 0.42366 0.42612 0.00000
C148 C 0.39123 0.36449 0.37963 0.00000
Zn149 Zn 0.31921 0.34941 0.36827 0.00000
O150 O 0.32281 0.38404 0.32453 0.00000
O151 O 0.31581 0.40794 0.37992 0.00000
O152 O 0.31291 0.33021 0.41353 0.00000
O153 O 0.32262 0.38485 0.45012 0.00000
C154 C 0.59759 0.66389 0.64264 0.00000
O155 O 0.70610 0.69859 0.66267 0.00000
O156 O 0.67860 0.66073 0.59016 0.00000
C157 C 0.69270 0.59147 0.63544 0.00000
O158 O 0.63628 0.61952 0.56769 0.00000
C159 C 0.69957 0.69325 0.69340 0.00000
O160 O 0.67893 0.66823 0.69906 0.00000
Zn161 Zn 0.61731 0.58677 0.60276 0.00000
C162 C 0.66230 0.64000 0.56523 0.00000
Zn163 Zn 0.67118 0.65663 0.63993 0.00000
O164 O 0.71503 0.61669 0.63351 0.00000
O165 O 0.66127 0.59881 0.63774 0.00000
O166 O 0.62618 0.68122 0.64762 0.00000
O167 O 0.59210 0.62959 0.63219 0.00000
C168 C 0.34583 0.67911 0.59123 0.00000
O169 O 0.33761 0.72555 0.70347 0.00000
O170 O 0.40243 0.69090 0.67291 0.00000
C171 C 0.34908 0.61928 0.68742 0.00000
O172 O 0.41636 0.64645 0.62835 0.00000
C173 C 0.30607 0.71658 0.69746 0.00000
O174 O 0.29575 0.68847 0.67606 0.00000
Zn175 Zn 0.37600 0.60814 0.60927 0.00000
C176 C 0.42323 0.67041 0.65527 0.00000
Zn177 Zn 0.35217 0.68131 0.66647 0.00000
O178 O 0.35584 0.64746 0.71064 0.00000
O179 O 0.34583 0.62248 0.65538 0.00000
O180 O 0.34508 0.69956 0.62093 0.00000
O181 O 0.35114 0.64509 0.58482 0.00000
C182 C 0.42067 0.33574 0.69218 0.00000
O183 O 0.31167 0.31006 0.70668 0.00000
O184 O 0.33747 0.33907 0.64229 0.00000
C185 C 0.33036 0.41503 0.70667 0.00000
O186 O 0.38095 0.37566 0.62902 0.00000
C187 C 0.32018 0.31821 0.73901 0.00000
O188 O 0.34262 0.34278 0.75065 0.00000
Zn189 Zn 0.40383 0.41123 0.67253 0.00000
C190 C 0.35363 0.35641 0.62197 0.00000
Zn191 Zn 0.34783 0.34788 0.69355 0.00000
O192 O 0.30645 0.39076 0.69881 0.00000
O193 O 0.36126 0.40565 0.70614 0.00000
O194 O 0.39141 0.32063 0.69356 0.00000
O195 O 0.42776 0.36909 0.69039 0.00000
C196 C 0.59306 0.30319 0.65153 0.00000
O197 O 0.70218 0.29412 0.67382 0.00000
O198 O 0.67548 0.36054 0.64636 0.00000
C199 C 0.68439 0.29230 0.57505 0.00000
O200 O 0.63205 0.37189 0.61253 0.00000
C201 C 0.69429 0.25940 0.66655 0.00000
O202 O 0.67227 0.24566 0.64389 0.00000
Zn203 Zn 0.61023 0.32435 0.57975 0.00000
C204 C 0.65910 0.38101 0.63012 0.00000
Zn205 Zn 0.66609 0.30570 0.63868 0.00000
O206 O 0.70797 0.30213 0.59744 0.00000
O207 O 0.65337 0.29122 0.58449 0.00000
O208 O 0.62224 0.30347 0.66524 0.00000
O209 O 0.58623 0.30445 0.62015 0.00000
C210 C 0.65359 0.41080 0.34430 0.00000
O211 O 0.66260 0.29207 0.30081 0.00000
O212 O 0.59861 0.32145 0.33794 0.00000
C213 C 0.65497 0.30964 0.40190 0.00000
O214 O 0.58542 0.36834 0.38055 0.00000
C215 C 0.69427 0.30013 0.30696 0.00000
O216 O 0.70516 0.32359 0.33260 0.00000
Zn217 Zn 0.62673 0.39099 0.41368 0.00000
C218 C 0.57826 0.33927 0.35864 0.00000
Zn219 Zn 0.64895 0.33093 0.34333 0.00000
O220 O 0.64766 0.28444 0.37595 0.00000
O221 O 0.65733 0.34363 0.39837 0.00000
O222 O 0.65424 0.37922 0.32518 0.00000
O223 O 0.64949 0.41768 0.37677 0.00000
S224 S 0.76124 0.23144 0.77483 0.00000
C225 C 0.71739 0.24191 0.67994 0.00000
C226 C 0.74539 0.22199 0.67370 0.00000
C227 C 0.76002 0.20370 0.64049 0.00000
C228 C 0.79003 0.20270 0.75304 0.00000
H229 H 0.78059 0.19223 0.64542 0.00000
H230 H 0.74383 0.18498 0.62834 0.00000
H231 H 0.76513 0.22188 0.62609 0.00000
C232 C 0.76122 0.21953 0.70692 0.00000
C233 C 0.78896 0.19977 0.71650 0.00000
C234 C 0.74540 0.23812 0.73614 0.00000
C235 C 0.81292 0.17776 0.68941 0.00000
H236 H 0.79980 0.15811 0.67432 0.00000
H237 H 0.82335 0.19427 0.67558 0.00000
H238 H 0.83031 0.16724 0.70161 0.00000
S239 S 0.70950 0.25912 0.72459 0.00000
S240 S 0.80675 0.26124 0.24613 0.00000
C241 C 0.71457 0.28640 0.29277 0.00000
C242 C 0.70849 0.26185 0.26256 0.00000
C243 C 0.67635 0.24328 0.24644 0.00000
C244 C 0.78588 0.22882 0.21458 0.00000
H245 H 0.68105 0.22775 0.22441 0.00000
H246 H 0.66622 0.22819 0.26180 0.00000
H247 H 0.66085 0.26170 0.24266 0.00000
C248 C 0.74067 0.25418 0.24583 0.00000
C249 C 0.75016 0.22870 0.21577 0.00000
C250 C 0.76893 0.27356 0.26322 0.00000
C251 C 0.72387 0.20429 0.18974 0.00000
H252 H 0.71078 0.18794 0.20189 0.00000
H253 H 0.70882 0.22005 0.18035 0.00000
H254 H 0.73579 0.18976 0.17098 0.00000
S255 S 0.75776 0.30187 0.30178 0.00000
S256 S 0.70135 0.75415 0.25239 0.00000
C257 C 0.79665 0.80910 0.26008 0.00000
C258 C 0.79259 0.79237 0.28806 0.00000
C259 C 0.81619 0.78995 0.31739 0.00000
C260 C 0.71101 0.73605 0.28863 0.00000
H261 H 0.80493 0.77631 0.33329 0.00000
H262 H 0.83599 0.77730 0.30838 0.00000
H263 H 0.82307 0.81456 0.32954 0.00000
C264 C 0.75883 0.77432 0.28583 0.00000
C265 C 0.74188 0.75032 0.30573 0.00000
C266 C 0.73896 0.77892 0.25742 0.00000
C267 C 0.75698 0.74135 0.34037 0.00000
H268 H 0.77799 0.72916 0.33558 0.00000
H269 H 0.76132 0.76404 0.35702 0.00000
H270 H 0.74100 0.72524 0.34981 0.00000
S271 S 0.76088 0.80508 0.23115 0.00000
S272 S 0.28086 0.66751 0.21563 0.00000
C273 C 0.21277 0.73583 0.18052 0.00000
C274 C 0.22224 0.75059 0.21394 0.00000
C275 C 0.21348 0.78557 0.23680 0.00000
C276 C 0.28689 0.69909 0.25377 0.00000
H277 H 0.22427 0.78737 0.25947 0.00000
H278 H 0.22140 0.80635 0.22656 0.00000
H279 H 0.18916 0.78584 0.23922 0.00000
C280 C 0.24509 0.72596 0.22642 0.00000
C281 C 0.26498 0.72861 0.25768 0.00000
C282 C 0.25104 0.69388 0.20277 0.00000
C283 C 0.26253 0.76061 0.29001 0.00000
H284 H 0.26900 0.78399 0.28341 0.00000
H285 H 0.23950 0.76113 0.29809 0.00000
H286 H 0.27764 0.75649 0.30844 0.00000
S287 S 0.22948 0.69242 0.16331 0.00000
S288 S 0.18568 0.21434 0.25292 0.00000
C289 C 0.25113 0.29186 0.31549 0.00000
C290 C 0.26806 0.27597 0.28704 0.00000
C291 C 0.30312 0.28328 0.27568 0.00000
C292 C 0.21632 0.20727 0.22190 0.00000
H293 H 0.30726 0.26644 0.25424 0.00000
H294 H 0.30571 0.30846 0.27183 0.00000
H295 H 0.31918 0.27979 0.29351 0.00000
C296 C 0.24543 0.24805 0.26593 0.00000
C297 C 0.24818 0.22530 0.23236 0.00000
C298 C 0.21341 0.24344 0.27948 0.00000
C299 C 0.28175 0.22282 0.21121 0.00000
H300 H 0.28826 0.24688 0.20607 0.00000
H301 H 0.29958 0.21489 0.22483 0.00000
H302 H 0.27807 0.20526 0.18965 0.00000
S303 S 0.20884 0.27385 0.31875 0.00000
S304 S 0.75943 0.71273 0.72543 0.00000
C305 C 0.75154 0.79735 0.81119 0.00000
C306 C 0.72043 0.78919 0.79562 0.00000
C307 C 0.68686 0.80397 0.80533 0.00000
C308 C 0.71615 0.71087 0.71925 0.00000
H309 H 0.66990 0.79243 0.78811 0.00000
H310 H 0.68081 0.79861 0.82786 0.00000
H311 H 0.68800 0.83042 0.80641 0.00000
C312 C 0.72359 0.76053 0.76502 0.00000
C313 C 0.69950 0.73919 0.74084 0.00000
C314 C 0.75635 0.74923 0.75840 0.00000
C315 C 0.66075 0.74663 0.74036 0.00000
H316 H 0.65104 0.74323 0.76223 0.00000
H317 H 0.65793 0.77168 0.73716 0.00000
H318 H 0.64937 0.72950 0.72147 0.00000
S319 S 0.78527 0.77261 0.78995 0.00000
S320 S 0.20337 0.78797 0.75266 0.00000
C321 C 0.28749 0.73055 0.71559 0.00000
C322 C 0.28922 0.73767 0.75095 0.00000
C323 C 0.31407 0.72705 0.77573 0.00000
C324 C 0.21553 0.78552 0.79455 0.00000
H325 H 0.30803 0.73723 0.79935 0.00000
H326 H 0.31378 0.70038 0.77275 0.00000
H327 H 0.33653 0.73653 0.77125 0.00000
C328 C 0.26041 0.75882 0.76370 0.00000
C329 C 0.24760 0.77105 0.79768 0.00000
C330 C 0.23914 0.76744 0.73800 0.00000
C331 C 0.26683 0.76716 0.83210 0.00000
H332 H 0.26937 0.74126 0.83247 0.00000
H333 H 0.28897 0.77979 0.83307 0.00000
H334 H 0.25397 0.77793 0.85197 0.00000
S335 S 0.25283 0.74928 0.69644 0.00000
S336 S 0.30327 0.25953 0.74198 0.00000
C337 C 0.21432 0.23283 0.78998 0.00000
C338 C 0.22283 0.26934 0.80097 0.00000
C339 C 0.20524 0.29854 0.82441 0.00000
C340 C 0.29983 0.30530 0.76027 0.00000
H341 H 0.21863 0.32167 0.82719 0.00000
H342 H 0.18327 0.30151 0.81435 0.00000
H343 H 0.20232 0.29150 0.84686 0.00000
C344 C 0.25451 0.27819 0.78506 0.00000
C345 C 0.27368 0.31203 0.78455 0.00000
C346 C 0.26873 0.24846 0.76395 0.00000
C347 C 0.26511 0.35007 0.80719 0.00000
H348 H 0.24280 0.35648 0.80059 0.00000
H349 H 0.26545 0.34819 0.83153 0.00000
H350 H 0.28173 0.36902 0.80335 0.00000
S351 S 0.24356 0.20783 0.76170 0.00000
S352 S 0.85906 0.96975 0.84082 0.00000
C353 C 0.81429 0.06500 0.82413 0.00000
C354 C 0.78946 0.03859 0.82602 0.00000
C355 C 0.75192 0.03982 0.82469 0.00000
C356 C 0.81953 0.94949 0.84507 0.00000
H357 H 0.74172 0.01577 0.82627 0.00000
H358 H 0.74472 0.05795 0.84402 0.00000
H359 H 0.74487 0.04657 0.80303 0.00000
C360 C 0.80530 0.00503 0.83064 0.00000
C361 C 0.79227 0.97014 0.83720 0.00000
C362 C 0.84060 0.00716 0.83108 0.00000
C363 C 0.75344 0.95860 0.83650 0.00000
H364 H 0.74228 0.97532 0.85433 0.00000
H365 H 0.74365 0.95977 0.81396 0.00000
H366 H 0.75043 0.93367 0.84089 0.00000
S367 S 0.85658 0.05097 0.82664 0.00000
S368 S 0.97017 0.13966 0.12814 0.00000
C369 C 0.07013 0.18035 0.14812 0.00000
C370 C 0.04936 0.20418 0.16713 0.00000
C371 C 0.05712 0.23871 0.19294 0.00000
C372 C 0.95693 0.17493 0.15939 0.00000
H373 H 0.03617 0.24928 0.20130 0.00000
H374 H 0.07004 0.23309 0.21234 0.00000
H375 H 0.07021 0.25617 0.18208 0.00000
C376 C 0.01446 0.19047 0.15912 0.00000
C377 C 0.98264 0.20191 0.17312 0.00000
C378 C 0.01041 0.15815 0.13427 0.00000
C379 C 0.97866 0.23843 0.20027 0.00000
H380 H 0.99132 0.23733 0.22139 0.00000
H381 H 0.98727 0.25935 0.19068 0.00000
H382 H 0.95495 0.24108 0.20555 0.00000
S383 S 0.04941 0.14208 0.11976 0.00000
S384 S 0.82800 0.07276 0.22675 0.00000
C385 C 0.83227 0.95827 0.20333 0.00000
C386 C 0.84223 0.97247 0.17514 0.00000
C387 C 0.85479 0.95425 0.14089 0.00000
C388 C 0.84567 0.07580 0.18734 0.00000
H389 H 0.85919 0.97258 0.12645 0.00000
H390 H 0.87556 0.94244 0.14439 0.00000
H391 H 0.83792 0.93588 0.12955 0.00000
C392 C 0.83956 0.01231 0.18307 0.00000
C393 C 0.84916 0.04148 0.16502 0.00000
C394 C 0.82711 0.02608 0.21581 0.00000
C395 C 0.86236 0.03471 0.12680 0.00000
H396 H 0.88317 0.02183 0.12591 0.00000
H397 H 0.84550 0.01992 0.11140 0.00000
H398 H 0.86664 0.05821 0.11954 0.00000
S399 S 0.81864 0.99089 0.23926 0.00000
S400 S 0.04320 0.82402 0.14010 0.00000
C401 C 0.95068 0.81416 0.18830 0.00000
C402 C 0.97358 0.79468 0.20259 0.00000
C403 C 0.97053 0.77378 0.23158 0.00000
C404 C 0.06162 0.80028 0.16877 0.00000
H405 H 0.99171 0.76260 0.23477 0.00000
H406 H 0.96542 0.79049 0.25280 0.00000
H407 H 0.95252 0.75472 0.22614 0.00000
C408 C 0.00548 0.79719 0.18482 0.00000
C409 C 0.03863 0.78532 0.19053 0.00000
C410 C 0.00507 0.81715 0.15787 0.00000
C411 C 0.04685 0.76054 0.21786 0.00000
H412 H 0.04198 0.77352 0.24098 0.00000
H413 H 0.03306 0.73770 0.21271 0.00000
H414 H 0.07059 0.75520 0.21681 0.00000
S415 S 0.96554 0.83487 0.15321 0.00000
S416 S 0.13301 0.94544 0.12542 0.00000
C417 C 0.18586 0.04755 0.13478 0.00000
C418 C 0.20734 0.02254 0.14277 0.00000
C419 C 0.24415 0.02623 0.15193 0.00000
C420 C 0.17008 0.92562 0.13341 0.00000
H421 H 0.25149 0.00296 0.15666 0.00000
H422 H 0.25672 0.03278 0.13266 0.00000
H423 H 0.24825 0.04531 0.17233 0.00000
C424 C 0.18844 0.98728 0.14062 0.00000
C425 C 0.19807 0.95100 0.14316 0.00000
C426 C 0.15409 0.98740 0.13222 0.00000
C427 C 0.23469 0.94226 0.15412 0.00000
H428 H 0.25072 0.94851 0.13733 0.00000
H429 H 0.24064 0.95667 0.17685 0.00000
H430 H 0.23533 0.91621 0.15485 0.00000
S431 S 0.14301 0.03079 0.12562 0.00000
S432 S 0.02647 0.83620 0.90177 0.00000
C433 C 0.93050 0.86244 0.87201 0.00000
C434 C 0.95191 0.86377 0.84529 0.00000
C435 C 0.94566 0.87097 0.80962 0.00000
C436 C 0.04045 0.83744 0.86050 0.00000
H437 H 0.96679 0.87043 0.79731 0.00000
H438 H 0.92976 0.85211 0.79720 0.00000
H439 H 0.93636 0.89495 0.81107 0.00000
C440 C 0.98561 0.85584 0.85628 0.00000
C441 C 0.01691 0.85030 0.83862 0.00000
C442 C 0.98835 0.84998 0.89038 0.00000
C443 C 0.02240 0.85680 0.80047 0.00000
H444 H 0.00713 0.84009 0.78466 0.00000
H445 H 0.01784 0.88201 0.79916 0.00000
H446 H 0.04557 0.85218 0.79404 0.00000
S447 S 0.94938 0.85301 0.91083 0.00000
S448 S 0.21229 0.78132 0.01602 0.00000
C449 C 0.15656 0.80628 0.93304 0.00000
C450 C 0.13605 0.80745 0.96082 0.00000
C451 C 0.10015 0.81728 0.96543 0.00000
C452 C 0.17817 0.79067 0.04248 0.00000
H453 H 0.09312 0.81467 0.98851 0.00000
H454 H 0.09809 0.84263 0.96263 0.00000
H455 H 0.08591 0.80108 0.94818 0.00000
C456 C 0.15534 0.79746 0.98931 0.00000
C457 C 0.14818 0.79713 0.02501 0.00000
C458 C 0.18855 0.78841 0.98171 0.00000
C459 C 0.11237 0.80421 0.04103 0.00000
H460 H 0.10620 0.82887 0.03923 0.00000
H461 H 0.09575 0.78634 0.02848 0.00000
H462 H 0.11309 0.80189 0.06529 0.00000
S463 S 0.19841 0.79247 0.93919 0.00000
S464 S 0.87263 0.21332 0.96143 0.00000
C465 C 0.83898 0.19357 0.05715 0.00000
C466 C 0.81870 0.17329 0.03151 0.00000
C467 C 0.78981 0.14622 0.03304 0.00000
C468 C 0.84331 0.18021 0.94062 0.00000
H469 H 0.78058 0.13717 0.00979 0.00000
H470 H 0.79766 0.12570 0.04268 0.00000
H471 H 0.77244 0.15806 0.04761 0.00000
C472 C 0.82986 0.18129 0.99827 0.00000
C473 C 0.82032 0.16613 0.96292 0.00000
C474 C 0.85688 0.20741 0.00010 0.00000
C475 C 0.78951 0.13750 0.95220 0.00000
H476 H 0.79335 0.11519 0.96108 0.00000
H477 H 0.76899 0.14795 0.96185 0.00000
H478 H 0.78725 0.13162 0.92708 0.00000
S479 S 0.87081 0.22318 0.04315 0.00000
S480 S 0.81024 0.81745 0.07347 0.00000
C481 C 0.81074 0.84049 0.97313 0.00000
C482 C 0.82973 0.86743 0.99445 0.00000
C483 C 0.85004 0.89999 0.98692 0.00000
C484 C 0.83886 0.85424 0.08682 0.00000
H485 H 0.86010 0.91396 0.00836 0.00000
H486 H 0.86782 0.89168 0.97101 0.00000
H487 H 0.83552 0.91547 0.97646 0.00000
C488 C 0.82849 0.85990 0.02965 0.00000
C489 C 0.84556 0.87647 0.06162 0.00000
C490 C 0.80833 0.82888 0.03350 0.00000
C491 C 0.86867 0.91301 0.06611 0.00000
H492 H 0.88767 0.90922 0.05070 0.00000
H493 H 0.85568 0.93269 0.06042 0.00000
H494 H 0.87701 0.91960 0.08996 0.00000
S495 S 0.79023 0.80647 0.99381 0.00000
S496 S 0.20535 0.12301 0.00738 0.00000
C497 C 0.17705 0.16146 0.91806 0.00000
C498 C 0.15223 0.16820 0.94178 0.00000
C499 C 0.12011 0.18731 0.94065 0.00000
C500 C 0.17014 0.14134 0.02784 0.00000
H501 H 0.10795 0.18677 0.96190 0.00000
H502 H 0.12522 0.21273 0.93846 0.00000
H503 H 0.10629 0.17498 0.92090 0.00000
C504 C 0.16173 0.15357 0.97242 0.00000
C505 C 0.14737 0.15541 0.00604 0.00000
C506 C 0.19217 0.13591 0.97022 0.00000
C507 C 0.11220 0.17188 0.01596 0.00000
H508 H 0.11309 0.19771 0.01404 0.00000
H509 H 0.09472 0.15858 0.00010 0.00000
H510 H 0.10715 0.16961 0.03966 0.00000
S511 S 0.21146 0.13697 0.93053 0.00000
S512 S 0.67507 0.61846 0.42011 0.00000
C513 C 0.67474 0.64265 0.52845 0.00000
C514 C 0.68196 0.67440 0.51641 0.00000
C515 C 0.68761 0.71322 0.53512 0.00000
C516 C 0.68070 0.66485 0.41930 0.00000
H517 H 0.69276 0.72911 0.51853 0.00000
H518 H 0.66733 0.72100 0.54739 0.00000
H519 H 0.70633 0.71485 0.55163 0.00000
C520 C 0.68319 0.66556 0.47864 0.00000
C521 C 0.68663 0.68762 0.45228 0.00000
C522 C 0.67789 0.62823 0.46416 0.00000
C523 C 0.69467 0.73051 0.46038 0.00000
H524 H 0.67654 0.74243 0.47376 0.00000
H525 H 0.71574 0.73596 0.47362 0.00000
H526 H 0.69660 0.73962 0.43876 0.00000
S527 S 0.67024 0.60170 0.49611 0.00000
S528 S 0.30084 0.68970 0.53843 0.00000
C529 C 0.34407 0.68217 0.44096 0.00000
C530 C 0.36923 0.68855 0.46572 0.00000
C531 C 0.40671 0.69117 0.46264 0.00000
C532 C 0.34069 0.69280 0.55732 0.00000
H533 H 0.41722 0.69657 0.48565 0.00000
H534 H 0.41423 0.66789 0.45020 0.00000
H535 H 0.41309 0.71062 0.45005 0.00000
C536 C 0.35390 0.69242 0.49972 0.00000
C537 C 0.36749 0.69606 0.53433 0.00000
C538 C 0.31861 0.68986 0.49925 0.00000
C539 C 0.40642 0.70156 0.54358 0.00000
H540 H 0.41788 0.68029 0.53193 0.00000
H541 H 0.41557 0.72349 0.53599 0.00000
H542 H 0.40983 0.70417 0.56849 0.00000
S543 S 0.30203 0.68164 0.45681 0.00000
S544 S 0.37624 0.34622 0.56071 0.00000
C545 C 0.31442 0.33472 0.47185 0.00000
C546 C 0.29446 0.33572 0.50002 0.00000
C547 C 0.25697 0.33508 0.50305 0.00000
C548 C 0.34089 0.35030 0.58606 0.00000
H549 H 0.25106 0.33561 0.52708 0.00000
H550 H 0.24847 0.35649 0.49539 0.00000
H551 H 0.24697 0.31285 0.48867 0.00000
C552 C 0.31619 0.33845 0.53079 0.00000
C553 C 0.30974 0.34367 0.56723 0.00000
C554 C 0.35082 0.33838 0.52459 0.00000
C555 C 0.27317 0.34301 0.58240 0.00000
H556 H 0.26086 0.36284 0.57591 0.00000
H557 H 0.26134 0.31960 0.57313 0.00000
H558 H 0.27478 0.34631 0.60752 0.00000
S559 S 0.35887 0.33583 0.48049 0.00000
S560 S 0.46912 0.65619 0.61924 0.00000
C561 C 0.57027 0.68188 0.64947 0.00000
C562 C 0.55035 0.69669 0.67597 0.00000
C563 C 0.55925 0.71739 0.71156 0.00000
C564 C 0.45703 0.67584 0.66032 0.00000
H565 H 0.53872 0.72450 0.72369 0.00000
H566 H 0.57150 0.70180 0.72423 0.00000
H567 H 0.57331 0.73924 0.70999 0.00000
C568 C 0.51508 0.68871 0.66480 0.00000
C569 C 0.48367 0.69435 0.68223 0.00000
C570 C 0.50997 0.66953 0.63080 0.00000
C571 C 0.48092 0.71684 0.72022 0.00000
H572 H 0.49311 0.70484 0.73626 0.00000
H573 H 0.49066 0.74164 0.72136 0.00000
H574 H 0.45733 0.71783 0.72650 0.00000
S575 S 0.54833 0.65932 0.61065 0.00000
S576 S 0.30518 0.46811 0.67587 0.00000
C577 C 0.34501 0.57675 0.69041 0.00000
C578 C 0.36043 0.55918 0.71349 0.00000
C579 C 0.38818 0.57205 0.73963 0.00000
C580 C 0.33418 0.45888 0.70589 0.00000
H581 H 0.39277 0.55253 0.75226 0.00000
H582 H 0.40844 0.57842 0.72787 0.00000
H583 H 0.38149 0.59355 0.75571 0.00000
C584 C 0.34558 0.52166 0.70909 0.00000
C585 C 0.35348 0.49017 0.72362 0.00000
C586 C 0.31955 0.51300 0.68410 0.00000
C587 C 0.38043 0.49161 0.75376 0.00000
H588 H 0.40253 0.49880 0.74601 0.00000
H589 H 0.37432 0.50945 0.77378 0.00000
H590 H 0.38114 0.46746 0.76002 0.00000
S591 S 0.31222 0.55028 0.66382 0.00000
S592 S 0.53685 0.28278 0.63470 0.00000
C593 C 0.45113 0.31328 0.69156 0.00000
C594 C 0.47874 0.31990 0.71335 0.00000
C595 C 0.48212 0.33667 0.75093 0.00000
C596 C 0.56195 0.29995 0.67093 0.00000
H597 H 0.50554 0.33674 0.75855 0.00000
H598 H 0.47506 0.36182 0.75445 0.00000
H599 H 0.46798 0.32249 0.76426 0.00000
C600 C 0.50841 0.30800 0.69359 0.00000
C601 C 0.54394 0.31104 0.70174 0.00000
C602 C 0.50197 0.29235 0.65874 0.00000
C603 C 0.55911 0.32573 0.73935 0.00000
H604 H 0.55320 0.35105 0.74706 0.00000
H605 H 0.54993 0.31063 0.75513 0.00000
H606 H 0.58353 0.32468 0.73903 0.00000
S607 S 0.45901 0.29207 0.64787 0.00000
S608 S 0.63281 0.44595 0.62789 0.00000
C609 C 0.68607 0.54754 0.63487 0.00000
C610 C 0.70793 0.52219 0.64133 0.00000
C611 C 0.74515 0.52540 0.64826 0.00000
C612 C 0.67022 0.42562 0.63344 0.00000
H613 H 0.75273 0.50197 0.65233 0.00000
H614 H 0.75658 0.53193 0.62831 0.00000
H615 H 0.75041 0.54433 0.66852 0.00000
C616 C 0.68895 0.48711 0.64004 0.00000
C617 C 0.69868 0.45064 0.64168 0.00000
C618 C 0.65423 0.48768 0.63374 0.00000
C619 C 0.73582 0.44140 0.65032 0.00000
H620 H 0.75084 0.44757 0.63264 0.00000
H621 H 0.74305 0.45561 0.67276 0.00000
H622 H 0.73649 0.41529 0.65079 0.00000
S623 S 0.64282 0.53132 0.62819 0.00000
S624 S 0.44624 0.34746 0.40784 0.00000
C625 C 0.53882 0.33097 0.35924 0.00000
C626 C 0.51522 0.33596 0.33518 0.00000
C627 C 0.51830 0.33786 0.29768 0.00000
C628 C 0.42883 0.35609 0.36979 0.00000
H629 H 0.49622 0.34113 0.28802 0.00000
H630 H 0.53356 0.35857 0.29525 0.00000
H631 H 0.52713 0.31523 0.28538 0.00000
C632 C 0.48272 0.34042 0.35206 0.00000
C633 C 0.45017 0.34956 0.34084 0.00000
C634 C 0.48297 0.33768 0.38711 0.00000
C635 C 0.44136 0.35261 0.30224 0.00000
H636 H 0.45565 0.37211 0.29552 0.00000
H637 H 0.44521 0.32944 0.28703 0.00000
H638 H 0.41783 0.35825 0.30038 0.00000
S639 S 0.52346 0.33028 0.40176 0.00000
S640 S 0.68855 0.53547 0.30520 0.00000
C641 C 0.66035 0.43475 0.33317 0.00000
C642 C 0.63808 0.46009 0.34690 0.00000
C643 C 0.60699 0.45637 0.36727 0.00000
C644 C 0.65260 0.55386 0.32400 0.00000
H645 H 0.59730 0.48022 0.37348 0.00000
H646 H 0.59065 0.43917 0.35332 0.00000
H647 H 0.61270 0.44726 0.38816 0.00000
C648 C 0.64874 0.49548 0.33805 0.00000
C649 C 0.63390 0.53056 0.34264 0.00000
C650 C 0.67844 0.49559 0.31926 0.00000
C651 C 0.60127 0.53973 0.36435 0.00000
H652 H 0.58237 0.52359 0.35382 0.00000
H653 H 0.60509 0.53604 0.38791 0.00000
H654 H 0.59616 0.56517 0.36462 0.00000
S655 S 0.69472 0.45185 0.31057 0.00000
S656 S 0.54137 0.70457 0.27567 0.00000
C657 C 0.44295 0.68590 0.30774 0.00000
C658 C 0.46267 0.65985 0.31674 0.00000
C659 C 0.45471 0.62954 0.33619 0.00000
C660 C 0.55456 0.66989 0.29583 0.00000
H661 H 0.47464 0.61562 0.33758 0.00000
H662 H 0.44785 0.63995 0.35946 0.00000
H663 H 0.43649 0.61337 0.32427 0.00000
C664 C 0.49671 0.66576 0.30441 0.00000
C665 C 0.52813 0.64942 0.30886 0.00000
C666 C 0.50093 0.69472 0.28621 0.00000
C667 C 0.53132 0.61488 0.32667 0.00000
H668 H 0.52425 0.62089 0.35057 0.00000
H669 H 0.51703 0.59448 0.31429 0.00000
H670 H 0.55466 0.60805 0.32622 0.00000
S671 S 0.46339 0.71710 0.28382 0.00000
S672 S 0.33771 0.56506 0.36491 0.00000
C673 C 0.31697 0.45133 0.35031 0.00000
C674 C 0.29765 0.46528 0.32733 0.00000
C675 C 0.27358 0.44667 0.29923 0.00000
C676 C 0.31199 0.56692 0.32950 0.00000
H677 H 0.26362 0.46503 0.28803 0.00000
H678 H 0.28561 0.42991 0.28221 0.00000
H679 H 0.25590 0.43293 0.30908 0.00000
C680 C 0.30415 0.50514 0.33338 0.00000
C681 C 0.29369 0.53341 0.31561 0.00000
C682 C 0.32688 0.51939 0.36066 0.00000
C683 C 0.26676 0.52639 0.28490 0.00000
H684 H 0.27504 0.50886 0.26569 0.00000
H685 H 0.24571 0.51652 0.29271 0.00000
H686 H 0.26302 0.54942 0.27729 0.00000
S687 S 0.34233 0.48446 0.38010 0.00000
S688 S 0.66782 0.35164 0.46198 0.00000
C689 C 0.67543 0.29470 0.54413 0.00000
C690 C 0.66211 0.27106 0.51578 0.00000
C691 C 0.65237 0.23090 0.51039 0.00000
C692 C 0.65488 0.31103 0.43472 0.00000
H693 H 0.64313 0.22270 0.48702 0.00000
H694 H 0.67219 0.21735 0.51349 0.00000
H695 H 0.63555 0.22646 0.52710 0.00000
C696 C 0.65844 0.29142 0.48756 0.00000
C697 C 0.64888 0.28065 0.45157 0.00000
C698 C 0.66805 0.32892 0.49589 0.00000
C699 C 0.63506 0.24059 0.43470 0.00000
H700 H 0.65225 0.22325 0.43669 0.00000
H701 H 0.61500 0.23409 0.44662 0.00000
H702 H 0.62952 0.23970 0.41036 0.00000
S703 S 0.68299 0.34135 0.53883 0.00000
S704 S 0.12034 0.95108 0.84665 0.00000
C705 C 0.15192 0.05410 0.82577 0.00000
C706 C 0.17818 0.03147 0.82043 0.00000
C707 C 0.21291 0.03766 0.80769 0.00000
C708 C 0.15856 0.93424 0.83263 0.00000
H709 H 0.22546 0.01575 0.80747 0.00000
H710 H 0.21146 0.04279 0.78432 0.00000
H711 H 0.22440 0.05844 0.82289 0.00000
C712 C 0.16735 0.99596 0.82892 0.00000
C713 C 0.18273 0.96125 0.82547 0.00000
C714 C 0.13443 0.99367 0.84094 0.00000
C715 C 0.22039 0.95549 0.81430 0.00000
H716 H 0.22321 0.96072 0.79110 0.00000
H717 H 0.23547 0.97201 0.83041 0.00000
H718 H 0.22567 0.93017 0.81439 0.00000
S719 S 0.11441 0.03487 0.84179 0.00000
S720 S 0.04593 0.21728 0.80063 0.00000
C721 C 0.94332 0.18838 0.80763 0.00000
C722 C 0.96050 0.15699 0.80009 0.00000
C723 C 0.94868 0.11746 0.79605 0.00000
C724 C 0.05478 0.17144 0.79562 0.00000
H725 H 0.96762 0.10203 0.79010 0.00000
H726 H 0.93933 0.11293 0.81773 0.00000
H727 H 0.93142 0.11171 0.77781 0.00000
C728 C 0.99612 0.16726 0.79649 0.00000
C729 C 0.02594 0.14666 0.79184 0.00000
C730 C 0.00401 0.20507 0.80045 0.00000
C731 C 0.02519 0.10331 0.78480 0.00000
H732 H 0.01535 0.09433 0.80442 0.00000
H733 H 0.01169 0.09361 0.76402 0.00000
H734 H 0.04807 0.09527 0.78174 0.00000
S735 S 0.96813 0.23046 0.80967 0.00000
loop_
_geom_bond_atom_site_label_1
_geom_bond_atom_site_label_2
_geom_bond_distance
_geom_bond_site_symmetry_2
_ccdc_geom_bond_type
C0 O12 1.253 . A
C0 O13 1.252 . A
O1 C5 1.270 . A
O1 Zn9 2.064 . S
O2 C8 1.257 . A
O2 Zn9 1.987 . S
C3 O10 1.252 . D
C3 O11 1.274 . S
O4 Zn7 2.091 . S
O4 C8 1.249 . A
C5 O6 1.242 . A
O6 Zn9 2.267 . S
Zn7 O11 2.155 . S
Zn7 O13 2.063 . S
Zn9 O10 2.298 . S
Zn9 O11 2.116 . S
Zn9 O12 2.021 . S
C14 O26 1.253 . A
C14 O27 1.252 . A
O15 C19 1.270 . A
O15 Zn23 2.064 . S
O16 C22 1.257 . A
O16 Zn23 1.987 . S
C17 O24 1.252 . D
C17 O25 1.274 . S
O18 Zn21 2.091 . S
O18 C22 1.249 . A
C19 O20 1.242 . A
O20 Zn23 2.267 . S
Zn21 O25 2.155 . S
Zn21 O27 2.063 . S
Zn23 O24 2.298 . S
Zn23 O25 2.116 . S
Zn23 O26 2.021 . S
C28 O40 1.253 . A
C28 O41 1.252 . A
O29 C33 1.270 . A
O29 Zn37 2.064 . S
O30 C36 1.257 . A
O30 Zn37 1.987 . S
C31 O38 1.252 . D
C31 O39 1.274 . S
O32 Zn35 2.091 . S
O32 C36 1.249 . A
C33 O34 1.242 . A
O34 Zn37 2.267 . S
Zn35 O39 2.155 . S
Zn35 O41 2.063 . S
Zn37 O38 2.298 . S
Zn37 O39 2.116 . S
Zn37 O40 2.021 . S
C42 O54 1.253 . A
C42 O55 1.252 . A
O43 C47 1.270 . A
O43 Zn51 2.064 . S
O44 C50 1.257 . A
O44 Zn51 1.987 . S
C45 O52 1.252 . D
C45 O53 1.274 . S
O46 Zn49 2.091 . S
O46 C50 1.249 . A
C47 O48 1.242 . A
O48 Zn51 2.267 . S
Zn49 O53 2.155 . S
Zn49 O55 2.063 . S
Zn51 O52 2.298 . S
Zn51 O53 2.116 . S
Zn51 O54 2.021 . S
C56 O68 1.253 . A
C56 O69 1.252 . A
O57 C61 1.270 . A
O57 Zn65 2.064 . S
O58 C64 1.257 . A
O58 Zn65 1.987 . S
C59 O66 1.252 . D
C59 O67 1.274 . S
O60 Zn63 2.091 . S
O60 C64 1.249 . A
C61 O62 1.242 . A
O62 Zn65 2.267 . S
Zn63 O67 2.155 . S
Zn63 O69 2.063 . S
Zn65 O66 2.298 . S
Zn65 O67 2.116 . S
Zn65 O68 2.021 . S
C70 O82 1.253 . A
C70 O83 1.252 . A
O71 C75 1.270 . A
O71 Zn79 2.064 . S
O72 C78 1.257 . A
O72 Zn79 1.987 . S
C73 O80 1.252 . D
C73 O81 1.274 . S
O74 Zn77 2.091 . S
O74 C78 1.249 . A
C75 O76 1.242 . A
O76 Zn79 2.267 . S
Zn77 O81 2.155 . S
Zn77 O83 2.063 . S
Zn79 O80 2.298 . S
Zn79 O81 2.116 . S
Zn79 O82 2.021 . S
C84 O96 1.253 . A
C84 O97 1.252 . A
O85 C89 1.270 . A
O85 Zn93 2.064 . S
O86 C92 1.257 . A
O86 Zn93 1.987 . S
C87 O94 1.252 . D
C87 O95 1.274 . S
O88 Zn91 2.091 . S
O88 C92 1.249 . A
C89 O90 1.242 . A
O90 Zn93 2.267 . S
Zn91 O95 2.155 . S
Zn91 O97 2.063 . S
Zn93 O94 2.298 . S
Zn93 O95 2.116 . S
Zn93 O96 2.021 . S
C98 O110 1.253 . A
C98 O111 1.252 . A
O99 C103 1.270 . A
O99 Zn107 2.064 . S
O100 C106 1.257 . A
O100 Zn107 1.987 . S
C101 O108 1.252 . D
C101 O109 1.274 . S
O102 Zn105 2.091 . S
O102 C106 1.249 . A
C103 O104 1.242 . A
O104 Zn107 2.267 . S
Zn105 O109 2.155 . S
Zn105 O111 2.063 . S
Zn107 O108 2.298 . S
Zn107 O109 2.116 . S
Zn107 O110 2.021 . S
C112 O124 1.253 . A
C112 O125 1.252 . A
O113 C117 1.270 . A
O113 Zn121 2.064 . S
O114 C120 1.257 . A
O114 Zn121 1.987 . S
C115 O122 1.252 . D
C115 O123 1.274 . S
O116 Zn119 2.091 . S
O116 C120 1.249 . A
C117 O118 1.242 . A
O118 Zn121 2.267 . S
Zn119 O123 2.155 . S
Zn119 O125 2.063 . S
Zn121 O122 2.298 . S
Zn121 O123 2.116 . S
Zn121 O124 2.021 . S
C126 O138 1.253 . A
C126 O139 1.252 . A
O127 C131 1.270 . A
O127 Zn135 2.064 . S
O128 C134 1.257 . A
O128 Zn135 1.987 . S
C129 O136 1.252 . D
C129 O137 1.274 . S
O130 Zn133 2.091 . S
O130 C134 1.249 . A
C131 O132 1.242 . A
O132 Zn135 2.267 . S
Zn133 O137 2.155 . S
Zn133 O139 2.063 . S
Zn135 O136 2.298 . S
Zn135 O137 2.116 . S
Zn135 O138 2.021 . S
C140 O152 1.253 . A
C140 O153 1.252 . A
O141 C145 1.270 . A
O141 Zn149 2.064 . S
O142 C148 1.257 . A
O142 Zn149 1.987 . S
C143 O150 1.252 . D
C143 O151 1.274 . S
O144 Zn147 2.091 . S
O144 C148 1.249 . A
C145 O146 1.242 . A
O146 Zn149 2.267 . S
Zn147 O151 2.155 . S
Zn147 O153 2.063 . S
Zn149 O150 2.298 . S
Zn149 O151 2.116 . S
Zn149 O152 2.021 . S
C154 O166 1.253 . A
C154 O167 1.252 . A
O155 C159 1.270 . A
O155 Zn163 2.064 . S
O156 C162 1.257 . A
O156 Zn163 1.987 . S
C157 O164 1.252 . D
C157 O165 1.274 . S
O158 Zn161 2.091 . S
O158 C162 1.249 . A
C159 O160 1.242 . A
O160 Zn163 2.267 . S
Zn161 O165 2.155 . S
Zn161 O167 2.063 . S
Zn163 O164 2.298 . S
Zn163 O165 2.116 . S
Zn163 O166 2.021 . S
C168 O180 1.253 . A
C168 O181 1.252 . A
O169 C173 1.270 . A
O169 Zn177 2.064 . S
O170 C176 1.257 . A
O170 Zn177 1.987 . S
C171 O178 1.252 . D
C171 O179 1.274 . S
O172 Zn175 2.091 . S
O172 C176 1.249 . A
C173 O174 1.242 . A
O174 Zn177 2.267 . S
Zn175 O179 2.155 . S
Zn175 O181 2.063 . S
Zn177 O178 2.298 . S
Zn177 O179 2.116 . S
Zn177 O180 2.021 . S
C182 O194 1.253 . A
C182 O195 1.252 . A
O183 C187 1.270 . A
O183 Zn191 2.064 . S
O184 C190 1.257 . A
O184 Zn191 1.987 . S
C185 O192 1.252 . D
C185 O193 1.274 . S
O186 Zn189 2.091 . S
O186 C190 1.249 . A
C187 O188 1.242 . A
O188 Zn191 2.267 . S
Zn189 O193 2.155 . S
Zn189 O195 2.063 . S
Zn191 O192 2.298 . S
Zn191 O193 2.116 . S
Zn191 O194 2.021 . S
C196 O208 1.253 . A
C196 O209 1.252 . A
O197 C201 1.270 . A
O197 Zn205 2.064 . S
O198 C204 1.257 . A
O198 Zn205 1.987 . S
C199 O206 1.252 . D
C199 O207 1.274 . S
O200 Zn203 2.091 . S
O200 C204 1.249 . A
C201 O202 1.242 . A
O202 Zn205 2.267 . S
Zn203 O207 2.155 . S
Zn203 O209 2.063 . S
Zn205 O206 2.298 . S
Zn205 O207 2.116 . S
Zn205 O208 2.021 . S
C210 O222 1.253 . A
C210 O223 1.252 . A
O211 C215 1.270 . A
O211 Zn219 2.064 . S
O212 C218 1.257 . A
O212 Zn219 1.987 . S
C213 O220 1.252 . D
C213 O221 1.274 . S
O214 Zn217 2.091 . S
O214 C218 1.249 . A
C215 O216 1.242 . A
O216 Zn219 2.267 . S
Zn217 O221 2.155 . S
Zn217 O223 2.063 . S
Zn219 O220 2.298 . S
Zn219 O221 2.116 . S
Zn219 O222 2.021 . S
S224 C228 1.706 . A
S224 C234 1.680 . A
C225 C226 1.348 . A
C225 S239 1.766 . A
C226 C227 1.475 . S
C226 C232 1.442 . A
C227 H229 0.960 . S
C227 H230 0.960 . S
C227 H231 0.959 . S
C228 C233 1.401 . A
C232 C233 1.418 . A
C232 C234 1.381 . A
C233 C235 1.557 . S
C234 S239 1.729 . A
C235 H236 0.960 . S
C235 H237 0.959 . S
C235 H238 0.960 . S
S240 C244 1.706 . A
S240 C250 1.680 . A
C241 C242 1.348 . A
C241 S255 1.766 . A
C242 C243 1.475 . S
C242 C248 1.442 . A
C243 H245 0.960 . S
C243 H246 0.960 . S
C243 H247 0.959 . S
C244 C249 1.401 . A
C248 C249 1.418 . A
C248 C250 1.381 . A
C249 C251 1.557 . S
C250 S255 1.729 . A
C251 H252 0.960 . S
C251 H253 0.959 . S
C251 H254 0.960 . S
S256 C260 1.706 . A
S256 C266 1.680 . A
C257 C258 1.348 . A
C257 S271 1.766 . A
C258 C259 1.475 . S
C258 C264 1.442 . A
C259 H261 0.960 . S
C259 H262 0.960 . S
C259 H263 0.959 . S
C260 C265 1.401 . A
C264 C265 1.418 . A
C264 C266 1.381 . A
C265 C267 1.557 . S
C266 S271 1.729 . A
C267 H268 0.960 . S
C267 H269 0.959 . S
C267 H270 0.960 . S
S272 C276 1.706 . A
S272 C282 1.680 . A
C273 C274 1.348 . A
C273 S287 1.766 . A
C274 C275 1.475 . S
C274 C280 1.442 . A
C275 H277 0.960 . S
C275 H278 0.960 . S
C275 H279 0.959 . S
C276 C281 1.401 . A
C280 C281 1.418 . A
C280 C282 1.381 . A
C281 C283 1.557 . S
C282 S287 1.729 . A
C283 H284 0.960 . S
C283 H285 0.959 . S
C283 H286 0.960 . S
S288 C292 1.706 . A
S288 C298 1.680 . A
C289 C290 1.348 . A
C289 S303 1.766 . A
C290 C291 1.475 . S
C290 C296 1.442 . A
C291 H293 0.960 . S
C291 H294 0.960 . S
C291 H295 0.959 . S
C292 C297 1.401 . A
C296 C297 1.418 . A
C296 C298 1.381 . A
C297 C299 1.557 . S
C298 S303 1.729 . A
C299 H300 0.960 . S
C299 H301 0.959 . S
C299 H302 0.960 . S
S304 C308 1.706 . A
S304 C314 1.680 . A
C305 C306 1.348 . A
C305 S319 1.766 . A
C306 C307 1.475 . S
C306 C312 1.442 . A
C307 H309 0.960 . S
C307 H310 0.960 . S
C307 H311 0.959 . S
C308 C313 1.401 . A
C312 C313 1.418 . A
C312 C314 1.381 . A
C313 C315 1.557 . S
C314 S319 1.729 . A
C315 H316 0.960 . S
C315 H317 0.959 . S
C315 H318 0.960 . S
S320 C324 1.706 . A
S320 C330 1.680 . A
C321 C322 1.348 . A
C321 S335 1.766 . A
C322 C323 1.475 . S
C322 C328 1.442 . A
C323 H325 0.960 . S
C323 H326 0.960 . S
C323 H327 0.959 . S
C324 C329 1.401 . A
C328 C329 1.418 . A
C328 C330 1.381 . A
C329 C331 1.557 . S
C330 S335 1.729 . A
C331 H332 0.960 . S
C331 H333 0.959 . S
C331 H334 0.960 . S
S336 C340 1.706 . A
S336 C346 1.680 . A
C337 C338 1.348 . A
C337 S351 1.766 . A
C338 C339 1.475 . S
C338 C344 1.442 . A
C339 H341 0.960 . S
C339 H342 0.960 . S
C339 H343 0.959 . S
C340 C345 1.401 . A
C344 C345 1.418 . A
C344 C346 1.381 . A
C345 C347 1.557 . S
C346 S351 1.729 . A
C347 H348 0.960 . S
C347 H349 0.959 . S
C347 H350 0.960 . S
S352 C356 1.706 . A
S352 C362 1.680 1_565 A
C353 C354 1.348 . A
C353 S367 1.766 . A
C354 C355 1.475 . S
C354 C360 1.442 . A
C355 H357 0.960 . S
C355 H358 0.960 . S
C355 H359 0.959 . S
C356 C361 1.401 . A
C360 C361 1.418 1_545 A
C360 C362 1.381 . A
C361 C363 1.557 . S
C362 S367 1.729 . A
C363 H364 0.960 . S
C363 H365 0.959 . S
C363 H366 0.960 . S
S368 C372 1.706 . A
S368 C378 1.680 1_655 A
C369 C370 1.348 . A
C369 S383 1.766 . A
C370 C371 1.475 . S
C370 C376 1.442 . A
C371 H373 0.960 . S
C371 H374 0.960 . S
C371 H375 0.959 . S
C372 C377 1.401 . A
C376 C377 1.418 1_455 A
C376 C378 1.381 . A
C377 C379 1.557 . S
C378 S383 1.729 . A
C379 H380 0.960 . S
C379 H381 0.959 . S
C379 H382 0.960 . S
S384 C388 1.706 . A
S384 C394 1.680 . A
C385 C386 1.348 . A
C385 S399 1.766 . A
C386 C387 1.475 . S
C386 C392 1.442 1_565 A
C387 H389 0.960 . S
C387 H390 0.960 . S
C387 H391 0.959 . S
C388 C393 1.401 . A
C392 C393 1.418 . A
C392 C394 1.381 . A
C393 C395 1.557 . S
C394 S399 1.729 1_545 A
C395 H396 0.960 . S
C395 H397 0.959 . S
C395 H398 0.960 . S
S400 C404 1.706 . A
S400 C410 1.680 . A
C401 C402 1.348 . A
C401 S415 1.766 . A
C402 C403 1.475 . S
C402 C408 1.442 1_655 A
C403 H405 0.960 . S
C403 H406 0.960 . S
C403 H407 0.959 . S
C404 C409 1.401 . A
C408 C409 1.418 . A
C408 C410 1.381 . A
C409 C411 1.557 . S
C410 S415 1.729 1_455 A
C411 H412 0.960 . S
C411 H413 0.959 . S
C411 H414 0.960 . S
S416 C420 1.706 . A
S416 C426 1.680 . A
C417 C418 1.348 . A
C417 S431 1.766 . A
C418 C419 1.475 . S
C418 C424 1.442 1_545 A
C419 H421 0.960 . S
C419 H422 0.960 . S
C419 H423 0.959 . S
C420 C425 1.401 . A
C424 C425 1.418 . A
C424 C426 1.381 . A
C425 C427 1.557 . S
C426 S431 1.729 1_565 A
C427 H428 0.960 . S
C427 H429 0.959 . S
C427 H430 0.960 . S
S432 C436 1.706 . A
S432 C442 1.680 1_455 A
C433 C434 1.348 . A
C433 S447 1.766 . A
C434 C435 1.475 . S
C434 C440 1.442 . A
C435 H437 0.960 . S
C435 H438 0.960 . S
C435 H439 0.959 . S
C436 C441 1.401 . A
C440 C441 1.418 1_655 A
C440 C442 1.381 . A
C441 C443 1.557 . S
C442 S447 1.729 . A
C443 H444 0.960 . S
C443 H445 0.959 . S
C443 H446 0.960 . S
S448 C452 1.706 . A
S448 C458 1.680 1_554 A
C449 C450 1.348 . A
C449 S463 1.766 . A
C450 C451 1.475 . S
C450 C456 1.442 . A
C451 H453 0.960 . S
C451 H454 0.960 . S
C451 H455 0.959 . S
C452 C457 1.401 . A
C456 C457 1.418 1_556 A
C456 C458 1.381 . A
C457 C459 1.557 . S
C458 S463 1.729 . A
C459 H460 0.960 . S
C459 H461 0.959 . S
C459 H462 0.960 . S
S464 C468 1.706 . A
S464 C474 1.675 1_556 A
C465 C466 1.348 . A
C465 S479 1.766 . A
C466 C467 1.475 . S
C466 C472 1.442 1_554 A
C467 H469 0.960 . S
C467 H470 0.960 . S
C467 H471 0.959 . S
C468 C473 1.401 . A
C472 C473 1.418 . A
C472 C474 1.382 1_556 A
C473 C475 1.557 . S
C474 S479 1.734 . A
C475 H476 0.960 . S
C475 H477 0.959 . S
C475 H478 0.960 . S
S480 C484 1.706 . A
S480 C490 1.680 . A
C481 C482 1.348 . A
C481 S495 1.766 . A
C482 C483 1.475 . S
C482 C488 1.442 1_556 A
C483 H485 0.960 1_556 S
C483 H486 0.960 . S
C483 H487 0.959 . S
C484 C489 1.401 . A
C488 C489 1.418 . A
C488 C490 1.381 . A
C489 C491 1.557 . S
C490 S495 1.729 1_554 A
C491 H492 0.960 . S
C491 H493 0.959 . S
C491 H494 0.960 . S
S496 C500 1.706 . A
S496 C506 1.680 1_554 A
C497 C498 1.348 . A
C497 S511 1.766 . A
C498 C499 1.475 . S
C498 C504 1.442 . A
C499 H501 0.960 . S
C499 H502 0.960 . S
C499 H503 0.959 . S
C500 C505 1.401 . A
C504 C505 1.418 1_556 A
C504 C506 1.381 . A
C505 C507 1.557 . S
C506 S511 1.729 . A
C507 H508 0.960 . S
C507 H509 0.964 . S
C507 H510 0.960 . S
S512 C516 1.706 . A
S512 C522 1.680 . A
C513 C514 1.348 . A
C513 S527 1.766 . A
C514 C515 1.475 . S
C514 C520 1.442 . A
C515 H517 0.960 . S
C515 H518 0.960 . S
C515 H519 0.959 . S
C516 C521 1.401 . A
C520 C521 1.418 . A
C520 C522 1.381 . A
C521 C523 1.557 . S
C522 S527 1.729 . A
C523 H524 0.960 . S
C523 H525 0.959 . S
C523 H526 0.960 . S
S528 C532 1.706 . A
S528 C538 1.680 . A
C529 C530 1.348 . A
C529 S543 1.766 . A
C530 C531 1.475 . S
C530 C536 1.442 . A
C531 H533 0.960 . S
C531 H534 0.960 . S
C531 H535 0.959 . S
C532 C537 1.401 . A
C536 C537 1.418 . A
C536 C538 1.381 . A
C537 C539 1.557 . S
C538 S543 1.729 . A
C539 H540 0.960 . S
C539 H541 0.959 . S
C539 H542 0.960 . S
S544 C548 1.706 . A
S544 C554 1.680 . A
C545 C546 1.348 . A
C545 S559 1.766 . A
C546 C547 1.475 . S
C546 C552 1.442 . A
C547 H549 0.960 . S
C547 H550 0.960 . S
C547 H551 0.959 . S
C548 C553 1.401 . A
C552 C553 1.418 . A
C552 C554 1.381 . A
C553 C555 1.557 . S
C554 S559 1.729 . A
C555 H556 0.960 . S
C555 H557 0.959 . S
C555 H558 0.960 . S
S560 C564 1.706 . A
S560 C570 1.680 . A
C561 C562 1.348 . A
C561 S575 1.766 . A
C562 C563 1.475 . S
C562 C568 1.442 . A
C563 H565 0.960 . S
C563 H566 0.960 . S
C563 H567 0.959 . S
C564 C569 1.401 . A
C568 C569 1.418 . A
C568 C570 1.381 . A
C569 C571 1.557 . S
C570 S575 1.729 . A
C571 H572 0.960 . S
C571 H573 0.959 . S
C571 H574 0.960 . S
S576 C580 1.706 . A
S576 C586 1.680 . A
C577 C578 1.348 . A
C577 S591 1.766 . A
C578 C579 1.475 . S
C578 C584 1.442 . A
C579 H581 0.960 . S
C579 H582 0.960 . S
C579 H583 0.959 . S
C580 C585 1.401 . A
C584 C585 1.418 . A
C584 C586 1.381 . A
C585 C587 1.557 . S
C586 S591 1.729 . A
C587 H588 0.960 . S
C587 H589 0.959 . S
C587 H590 0.960 . S
S592 C596 1.706 . A
S592 C602 1.680 . A
C593 C594 1.348 . A
C593 S607 1.766 . A
C594 C595 1.475 . S
C594 C600 1.442 . A
C595 H597 0.960 . S
C595 H598 0.960 . S
C595 H599 0.959 . S
C596 C601 1.401 . A
C600 C601 1.418 . A
C600 C602 1.381 . A
C601 C603 1.557 . S
C602 S607 1.729 . A
C603 H604 0.960 . S
C603 H605 0.959 . S
C603 H606 0.960 . S
S608 C612 1.706 . A
S608 C618 1.680 . A
C609 C610 1.348 . A
C609 S623 1.766 . A
C610 C611 1.475 . S
C610 C616 1.442 . A
C611 H613 0.960 . S
C611 H614 0.960 . S
C611 H615 0.959 . S
C612 C617 1.401 . A
C616 C617 1.418 . A
C616 C618 1.381 . A
C617 C619 1.557 . S
C618 S623 1.729 . A
C619 H620 0.960 . S
C619 H621 0.959 . S
C619 H622 0.960 . S
S624 C628 1.706 . A
S624 C634 1.680 . A
C625 C626 1.348 . A
C625 S639 1.766 . A
C626 C627 1.475 . S
C626 C632 1.442 . A
C627 H629 0.960 . S
C627 H630 0.960 . S
C627 H631 0.959 . S
C628 C633 1.401 . A
C632 C633 1.418 . A
C632 C634 1.381 . A
C633 C635 1.557 . S
C634 S639 1.729 . A
C635 H636 0.960 . S
C635 H637 0.959 . S
C635 H638 0.960 . S
S640 C644 1.706 . A
S640 C650 1.680 . A
C641 C642 1.348 . A
C641 S655 1.766 . A
C642 C643 1.475 . S
C642 C648 1.442 . A
C643 H645 0.960 . S
C643 H646 0.960 . S
C643 H647 0.959 . S
C644 C649 1.401 . A
C648 C649 1.418 . A
C648 C650 1.381 . A
C649 C651 1.557 . S
C650 S655 1.729 . A
C651 H652 0.960 . S
C651 H653 0.959 . S
C651 H654 0.960 . S
S656 C660 1.706 . A
S656 C666 1.680 . A
C657 C658 1.348 . A
C657 S671 1.766 . A
C658 C659 1.475 . S
C658 C664 1.442 . A
C659 H661 0.960 . S
C659 H662 0.960 . S
C659 H663 0.959 . S
C660 C665 1.401 . A
C664 C665 1.418 . A
C664 C666 1.381 . A
C665 C667 1.557 . S
C666 S671 1.729 . A
C667 H668 0.960 . S
C667 H669 0.959 . S
C667 H670 0.960 . S
S672 C676 1.706 . A
S672 C682 1.680 . A
C673 C674 1.348 . A
C673 S687 1.766 . A
C674 C675 1.475 . S
C674 C680 1.442 . A
C675 H677 0.960 . S
C675 H678 0.960 . S
C675 H679 0.959 . S
C676 C681 1.401 . A
C680 C681 1.418 . A
C680 C682 1.381 . A
C681 C683 1.557 . S
C682 S687 1.729 . A
C683 H684 0.960 . S
C683 H685 0.959 . S
C683 H686 0.960 . S
S688 C692 1.706 . A
S688 C698 1.680 . A
C689 C690 1.348 . A
C689 S703 1.766 . A
C690 C691 1.475 . S
C690 C696 1.442 . A
C691 H693 0.960 . S
C691 H694 0.960 . S
C691 H695 0.959 . S
C692 C697 1.401 . A
C696 C697 1.418 . A
C696 C698 1.381 . A
C697 C699 1.557 . S
C698 S703 1.729 . A
C699 H700 0.960 . S
C699 H701 0.959 . S
C699 H702 0.960 . S
S704 C708 1.706 . A
S704 C714 1.680 . A
C705 C706 1.348 . A
C705 S719 1.766 . A
C706 C707 1.475 . S
C706 C712 1.442 1_545 A
C707 H709 0.960 . S
C707 H710 0.960 . S
C707 H711 0.959 . S
C708 C713 1.401 . A
C712 C713 1.418 . A
C712 C714 1.381 . A
C713 C715 1.557 . S
C714 S719 1.729 1_565 A
C715 H716 0.960 . S
C715 H717 0.959 . S
C715 H718 0.960 . S
S720 C724 1.706 . A
S720 C730 1.680 . A
C721 C722 1.348 . A
C721 S735 1.766 . A
C722 C723 1.475 . S
C722 C728 1.442 . A
C723 H725 0.960 . S
C723 H726 0.960 . S
C723 H727 0.959 . S
C724 C729 1.401 . A
C728 C729 1.418 1_655 A
C728 C730 1.381 1_655 A
C729 C731 1.557 . S
C730 S735 1.729 1_455 A
C731 H732 0.960 . S
C731 H733 0.959 . S
C731 H734 0.960 . S
C225 C201 1.291 . S
C228 C5 1.352 . S
C241 C215 1.067 . S
C244 C19 1.099 . S
C257 C33 1.311 . S
C260 C117 1.334 . S
C273 C47 1.336 . S
C276 C131 1.363 . S
C289 C145 1.221 . S
C292 C61 1.285 . S
C305 C75 1.251 . S
C308 C159 1.242 . S
C321 C173 1.097 . S
C324 C89 1.083 . S
C337 C103 1.326 . S
C340 C187 1.289 . S
C353 C3 1.458 . S
C356 C73 1.407 . S
C369 C56 1.261 . S
C372 C22 1.326 . S
C385 C31 1.609 . S
C388 C17 1.588 . S
C401 C28 1.444 . S
C404 C42 1.418 . S
C417 C59 1.610 . S
C420 C50 1.648 . S
C433 C78 1.574 . S
C436 C92 1.483 . S
C449 C87 1.237 . S
C452 C45 1.273 . S
C465 C14 1.537 . S
C468 C8 1.633 . S
C481 C70 1.286 . S
C484 C36 1.461 . S
C497 C101 1.475 . S
C500 C64 1.495 . S
C513 C162 1.532 . S
C516 C115 1.472 . S
C529 C134 1.643 . S
C532 C168 1.505 . S
C545 C140 1.336 . S
C548 C190 1.447 . S
C561 C154 1.290 . S
C564 C176 1.335 . S
C577 C171 1.581 . S
C580 C185 1.609 . S
C593 C182 1.481 . S
C596 C196 1.452 . S
C609 C157 1.610 . S
C612 C204 1.648 . S
C625 C218 1.561 . S
C628 C148 1.558 . S
C641 C210 1.069 . S
C644 C120 1.154 . S
C657 C126 1.307 . S
C660 C112 1.331 . S
C673 C143 1.439 . S
C676 C129 1.440 . S
C689 C199 1.264 . S
C692 C213 1.264 . S
C705 C106 1.151 . S
C708 C84 1.052 . S
C721 C0 1.349 . S
C724 C98 1.344 . S
