# Generated by pormake.
# Topology pcb, (4)-cn, num edge types: 1
# Building blocks:
#     Node 0, Type 0, BuildingBlock: N284, # of connection points: 7
#     Node 1, Type 0, BuildingBlock: N284, # of connection points: 7
#     Node 2, Type 0, BuildingBlock: N284, # of connection points: 7
#     Node 3, Type 0, BuildingBlock: N284, # of connection points: 7
#     Node 4, Type 0, BuildingBlock: N284, # of connection points: 7
#     Node 5, Type 0, BuildingBlock: N284, # of connection points: 7
#     Node 6, Type 0, BuildingBlock: N284, # of connection points: 7
#     Node 7, Type 0, BuildingBlock: N284, # of connection points: 7
#     Node 8, Type 0, BuildingBlock: N284, # of connection points: 7
#     Node 9, Type 0, BuildingBlock: N284, # of connection points: 7
#     Node 10, Type 0, BuildingBlock: N284, # of connection points: 7
#     Node 11, Type 0, BuildingBlock: N284, # of connection points: 7
#     Node 12, Type 0, BuildingBlock: N284, # of connection points: 7
#     Node 13, Type 0, BuildingBlock: N284, # of connection points: 7
#     Node 14, Type 0, BuildingBlock: N284, # of connection points: 7
#     Node 15, Type 0, BuildingBlock: N284, # of connection points: 7
#     Edge 16, Type (0, 0), BuildingBlock: E81, # of connection points: 2
#     Edge 17, Type (0, 0), BuildingBlock: E81, # of connection points: 2
#     Edge 18, Type (0, 0), BuildingBlock: E81, # of connection points: 2
#     Edge 19, Type (0, 0), BuildingBlock: E81, # of connection points: 2
#     Edge 20, Type (0, 0), BuildingBlock: E81, # of connection points: 2
#     Edge 21, Type (0, 0), BuildingBlock: E81, # of connection points: 2
#     Edge 22, Type (0, 0), BuildingBlock: E81, # of connection points: 2
#     Edge 23, Type (0, 0), BuildingBlock: E81, # of connection points: 2
#     Edge 24, Type (0, 0), BuildingBlock: E81, # of connection points: 2
#     Edge 25, Type (0, 0), BuildingBlock: E81, # of connection points: 2
#     Edge 26, Type (0, 0), BuildingBlock: E81, # of connection points: 2
#     Edge 27, Type (0, 0), BuildingBlock: E81, # of connection points: 2
#     Edge 28, Type (0, 0), BuildingBlock: E81, # of connection points: 2
#     Edge 29, Type (0, 0), BuildingBlock: E81, # of connection points: 2
#     Edge 30, Type (0, 0), BuildingBlock: E81, # of connection points: 2
#     Edge 31, Type (0, 0), BuildingBlock: E81, # of connection points: 2
#     Edge 32, Type (0, 0), BuildingBlock: E81, # of connection points: 2
#     Edge 33, Type (0, 0), BuildingBlock: E81, # of connection points: 2
#     Edge 34, Type (0, 0), BuildingBlock: E81, # of connection points: 2
#     Edge 35, Type (0, 0), BuildingBlock: E81, # of connection points: 2
#     Edge 36, Type (0, 0), BuildingBlock: E81, # of connection points: 2
#     Edge 37, Type (0, 0), BuildingBlock: E81, # of connection points: 2
#     Edge 38, Type (0, 0), BuildingBlock: E81, # of connection points: 2
#     Edge 39, Type (0, 0), BuildingBlock: E81, # of connection points: 2
#     Edge 40, Type (0, 0), BuildingBlock: E81, # of connection points: 2
#     Edge 41, Type (0, 0), BuildingBlock: E81, # of connection points: 2
#     Edge 42, Type (0, 0), BuildingBlock: E81, # of connection points: 2
#     Edge 43, Type (0, 0), BuildingBlock: E81, # of connection points: 2
#     Edge 44, Type (0, 0), BuildingBlock: E81, # of connection points: 2
#     Edge 45, Type (0, 0), BuildingBlock: E81, # of connection points: 2
#     Edge 46, Type (0, 0), BuildingBlock: E81, # of connection points: 2
#     Edge 47, Type (0, 0), BuildingBlock: E81, # of connection points: 2
# Relax obj value: 0.288
# Max RMSD: 0.385
# Mean RMSD: 0.385
data_pcb+N284+E81
_symmetry_space_group_name_H-M    P1
_symmetry_Int_Tables_number       1
_symmetry_cell_setting            triclinic
loop_
_symmetry_equiv_pos_as_xyz
'x, y, z'
_cell_length_a     48.276
_cell_length_b     38.879
_cell_length_c     38.879
_cell_angle_alpha  90.000
_cell_angle_beta   90.000
_cell_angle_gamma  90.000
loop_
_atom_site_label
_atom_site_type_symbol
_atom_site_fract_x
_atom_site_fract_y
_atom_site_fract_z
_atom_type_partial_charge
Zn0 Zn 0.87252 0.20937 0.74476 0.00000
N1 N 0.84563 0.23067 0.77838 0.00000
Zn2 Zn 0.88450 0.25518 0.83648 0.00000
H3 H 0.90657 0.35390 0.75364 0.00000
N4 N 0.84959 0.24528 0.80961 0.00000
H5 H 0.89225 0.29941 0.76810 0.00000
H6 H 0.89986 0.32212 0.86518 0.00000
N7 N 0.87369 0.15760 0.76174 0.00000
N8 N 0.87465 0.08771 0.77763 0.00000
N9 N 0.80415 0.24599 0.79875 0.00000
O10 O 0.88005 0.21446 0.88265 0.00000
O11 O 0.90220 0.26310 0.88285 0.00000
O12 O 0.91004 0.22420 0.75856 0.00000
O13 O 0.91450 0.22789 0.81529 0.00000
H14 H 0.88177 0.10486 0.82417 0.00000
H15 H 0.87895 0.16251 0.81158 0.00000
H16 H 0.86747 0.14053 0.71493 0.00000
O17 O 0.87143 0.25110 0.69919 0.00000
O18 O 0.88096 0.19662 0.69552 0.00000
C19 C 0.90486 0.34808 0.77675 0.00000
C20 C 0.89676 0.31487 0.78547 0.00000
C21 C 0.90100 0.32812 0.84207 0.00000
C22 C 0.90865 0.36146 0.83316 0.00000
C23 C 0.89358 0.23677 0.89824 0.00000
C24 C 0.81833 0.23185 0.77292 0.00000
C25 C 0.82435 0.25379 0.82081 0.00000
C26 C 0.87833 0.11164 0.80162 0.00000
C27 C 0.87722 0.14654 0.79391 0.00000
C28 C 0.87033 0.13378 0.73760 0.00000
C29 C 0.87102 0.09891 0.74560 0.00000
C30 C 0.87684 0.22530 0.68153 0.00000
C31 C 0.92408 0.22386 0.78564 0.00000
N32 N 0.89530 0.30473 0.81819 0.00000
N33 N 0.91026 0.37169 0.80056 0.00000
Zn34 Zn 0.87252 0.25523 0.20937 0.00000
N35 N 0.84563 0.22161 0.23067 0.00000
Zn36 Zn 0.88450 0.16352 0.25518 0.00000
H37 H 0.90658 0.24635 0.35390 0.00000
N38 N 0.84959 0.19038 0.24528 0.00000
H39 H 0.89225 0.23189 0.29942 0.00000
H40 H 0.89986 0.13481 0.32212 0.00000
N41 N 0.87369 0.23826 0.15761 0.00000
N42 N 0.87465 0.22236 0.08771 0.00000
N43 N 0.80415 0.20125 0.24600 0.00000
O44 O 0.88005 0.11734 0.21447 0.00000
O45 O 0.90220 0.11714 0.26311 0.00000
O46 O 0.91004 0.24143 0.22420 0.00000
O47 O 0.91450 0.18470 0.22789 0.00000
H48 H 0.88177 0.17583 0.10486 0.00000
H49 H 0.87895 0.18841 0.16252 0.00000
H50 H 0.86747 0.28507 0.14053 0.00000
O51 O 0.87143 0.30080 0.25111 0.00000
O52 O 0.88096 0.30447 0.19662 0.00000
C53 C 0.90486 0.22324 0.34808 0.00000
C54 C 0.89677 0.21452 0.31487 0.00000
C55 C 0.90100 0.15792 0.32813 0.00000
C56 C 0.90865 0.16684 0.36146 0.00000
C57 C 0.89358 0.10175 0.23677 0.00000
C58 C 0.81833 0.22707 0.23186 0.00000
C59 C 0.82435 0.17918 0.25379 0.00000
C60 C 0.87833 0.19837 0.11164 0.00000
C61 C 0.87722 0.20609 0.14654 0.00000
C62 C 0.87033 0.26239 0.13378 0.00000
C63 C 0.87102 0.25439 0.09891 0.00000
C64 C 0.87684 0.31847 0.22530 0.00000
C65 C 0.92408 0.21436 0.22387 0.00000
N66 N 0.89530 0.18181 0.30473 0.00000
N67 N 0.91026 0.19944 0.37169 0.00000
Zn68 Zn 0.87252 0.79063 0.25524 0.00000
N69 N 0.84564 0.76933 0.22162 0.00000
Zn70 Zn 0.88451 0.74482 0.16352 0.00000
H71 H 0.90658 0.64609 0.24636 0.00000
N72 N 0.84960 0.75472 0.19039 0.00000
H73 H 0.89226 0.70058 0.23190 0.00000
H74 H 0.89987 0.67788 0.13482 0.00000
N75 N 0.87369 0.84239 0.23826 0.00000
N76 N 0.87465 0.91229 0.22237 0.00000
N77 N 0.80415 0.75400 0.20125 0.00000
O78 O 0.88006 0.78553 0.11734 0.00000
O79 O 0.90221 0.73689 0.11714 0.00000
O80 O 0.91004 0.77580 0.24144 0.00000
O81 O 0.91451 0.77211 0.18470 0.00000
H82 H 0.88177 0.89513 0.17583 0.00000
H83 H 0.87896 0.83748 0.18841 0.00000
H84 H 0.86748 0.85947 0.28507 0.00000
O85 O 0.87143 0.74889 0.30081 0.00000
O86 O 0.88097 0.80338 0.30447 0.00000
C87 C 0.90487 0.65192 0.22324 0.00000
C88 C 0.89677 0.68512 0.21453 0.00000
C89 C 0.90100 0.67187 0.15793 0.00000
C90 C 0.90866 0.63854 0.16684 0.00000
C91 C 0.89359 0.76322 0.10175 0.00000
C92 C 0.81834 0.76814 0.22707 0.00000
C93 C 0.82436 0.74621 0.17919 0.00000
C94 C 0.87833 0.88836 0.19838 0.00000
C95 C 0.87722 0.85345 0.20609 0.00000
C96 C 0.87034 0.86621 0.26240 0.00000
C97 C 0.87102 0.90109 0.25439 0.00000
C98 C 0.87685 0.77470 0.31847 0.00000
C99 C 0.92408 0.77613 0.21436 0.00000
N100 N 0.89531 0.69526 0.18181 0.00000
N101 N 0.91027 0.62831 0.19944 0.00000
Zn102 Zn 0.12748 0.74477 0.20937 0.00000
N103 N 0.15437 0.77839 0.23068 0.00000
Zn104 Zn 0.11550 0.83648 0.25518 0.00000
H105 H 0.09343 0.75365 0.35391 0.00000
N106 N 0.15041 0.80962 0.24528 0.00000
H107 H 0.10775 0.76811 0.29942 0.00000
H108 H 0.10014 0.86519 0.32212 0.00000
N109 N 0.12631 0.76174 0.15761 0.00000
N110 N 0.12535 0.77764 0.08772 0.00000
N111 N 0.19585 0.79875 0.24600 0.00000
O112 O 0.11995 0.88266 0.21447 0.00000
O113 O 0.09780 0.88286 0.26311 0.00000
O114 O 0.08996 0.75857 0.22421 0.00000
O115 O 0.08550 0.81530 0.22789 0.00000
H116 H 0.11823 0.82417 0.10487 0.00000
H117 H 0.12105 0.81159 0.16252 0.00000
H118 H 0.13253 0.71493 0.14053 0.00000
O119 O 0.12857 0.69920 0.25111 0.00000
O120 O 0.11904 0.69553 0.19662 0.00000
C121 C 0.09514 0.77676 0.34808 0.00000
C122 C 0.10324 0.78548 0.31488 0.00000
C123 C 0.09900 0.84208 0.32813 0.00000
C124 C 0.09135 0.83316 0.36146 0.00000
C125 C 0.10642 0.89825 0.23678 0.00000
C126 C 0.18167 0.77293 0.23186 0.00000
C127 C 0.17565 0.82082 0.25379 0.00000
C128 C 0.12167 0.80163 0.11164 0.00000
C129 C 0.12278 0.79391 0.14655 0.00000
C130 C 0.12967 0.73761 0.13379 0.00000
C131 C 0.12898 0.74561 0.09891 0.00000
C132 C 0.12316 0.68153 0.22531 0.00000
C133 C 0.07592 0.78564 0.22387 0.00000
N134 N 0.10470 0.81819 0.30474 0.00000
N135 N 0.08974 0.80056 0.37169 0.00000
Zn136 Zn 0.12748 0.20937 0.25524 0.00000
N137 N 0.15436 0.23068 0.22162 0.00000
Zn138 Zn 0.11549 0.25518 0.16352 0.00000
H139 H 0.09342 0.35391 0.24635 0.00000
N140 N 0.15040 0.24528 0.19038 0.00000
H141 H 0.10774 0.29942 0.23190 0.00000
H142 H 0.10013 0.32212 0.13482 0.00000
N143 N 0.12631 0.15761 0.23826 0.00000
N144 N 0.12535 0.08772 0.22237 0.00000
N145 N 0.19585 0.24600 0.20125 0.00000
O146 O 0.11994 0.21447 0.11734 0.00000
O147 O 0.09779 0.26311 0.11714 0.00000
O148 O 0.08996 0.22420 0.24143 0.00000
O149 O 0.08549 0.22789 0.18470 0.00000
H150 H 0.11823 0.10487 0.17583 0.00000
H151 H 0.12104 0.16252 0.18841 0.00000
H152 H 0.13252 0.14053 0.28507 0.00000
O153 O 0.12857 0.25111 0.30081 0.00000
O154 O 0.11903 0.19662 0.30447 0.00000
C155 C 0.09513 0.34808 0.22324 0.00000
C156 C 0.10323 0.31488 0.21452 0.00000
C157 C 0.09900 0.32813 0.15792 0.00000
C158 C 0.09134 0.36146 0.16684 0.00000
C159 C 0.10641 0.23678 0.10175 0.00000
C160 C 0.18166 0.23186 0.22707 0.00000
C161 C 0.17564 0.25379 0.17919 0.00000
C162 C 0.12167 0.11164 0.19837 0.00000
C163 C 0.12278 0.14655 0.20609 0.00000
C164 C 0.12966 0.13379 0.26239 0.00000
C165 C 0.12898 0.09891 0.25439 0.00000
C166 C 0.12315 0.22530 0.31847 0.00000
C167 C 0.07592 0.22387 0.21436 0.00000
N168 N 0.10469 0.30474 0.18181 0.00000
N169 N 0.08973 0.37169 0.19944 0.00000
Zn170 Zn 0.87252 0.74476 0.79063 0.00000
N171 N 0.84564 0.77838 0.76933 0.00000
Zn172 Zn 0.88451 0.83647 0.74482 0.00000
H173 H 0.90658 0.75364 0.64610 0.00000
N174 N 0.84960 0.80961 0.75472 0.00000
H175 H 0.89226 0.76810 0.70058 0.00000
H176 H 0.89986 0.86518 0.67788 0.00000
N177 N 0.87369 0.76173 0.84240 0.00000
N178 N 0.87465 0.77763 0.91229 0.00000
N179 N 0.80415 0.79874 0.75401 0.00000
O180 O 0.88006 0.88265 0.78554 0.00000
O181 O 0.90221 0.88285 0.73690 0.00000
O182 O 0.91004 0.75856 0.77580 0.00000
O183 O 0.91451 0.81529 0.77211 0.00000
H184 H 0.88177 0.82416 0.89514 0.00000
H185 H 0.87896 0.81158 0.83749 0.00000
H186 H 0.86748 0.71492 0.85947 0.00000
O187 O 0.87143 0.69919 0.74890 0.00000
O188 O 0.88097 0.69552 0.80338 0.00000
C189 C 0.90487 0.77675 0.65192 0.00000
C190 C 0.89677 0.78547 0.68513 0.00000
C191 C 0.90100 0.84207 0.67188 0.00000
C192 C 0.90865 0.83315 0.63854 0.00000
C193 C 0.89359 0.89824 0.76323 0.00000
C194 C 0.81834 0.77292 0.76815 0.00000
C195 C 0.82436 0.82081 0.74621 0.00000
C196 C 0.87833 0.80162 0.88836 0.00000
C197 C 0.87722 0.79390 0.85346 0.00000
C198 C 0.87034 0.73760 0.86622 0.00000
C199 C 0.87102 0.74560 0.90109 0.00000
C200 C 0.87685 0.68152 0.77470 0.00000
C201 C 0.92408 0.78563 0.77614 0.00000
N202 N 0.89530 0.81818 0.69527 0.00000
N203 N 0.91027 0.80055 0.62831 0.00000
Zn204 Zn 0.12748 0.79063 0.74476 0.00000
N205 N 0.15437 0.76933 0.77838 0.00000
Zn206 Zn 0.11550 0.74482 0.83648 0.00000
H207 H 0.09343 0.64610 0.75364 0.00000
N208 N 0.15041 0.75472 0.80961 0.00000
H209 H 0.10775 0.70059 0.76810 0.00000
H210 H 0.10014 0.67788 0.86518 0.00000
N211 N 0.12631 0.84240 0.76174 0.00000
N212 N 0.12535 0.91229 0.77763 0.00000
N213 N 0.19585 0.75401 0.79875 0.00000
O214 O 0.11995 0.78554 0.88265 0.00000
O215 O 0.09780 0.73690 0.88285 0.00000
O216 O 0.08996 0.77580 0.75856 0.00000
O217 O 0.08550 0.77211 0.81529 0.00000
H218 H 0.11823 0.89514 0.82417 0.00000
H219 H 0.12105 0.83749 0.81158 0.00000
H220 H 0.13252 0.85947 0.71493 0.00000
O221 O 0.12857 0.74890 0.69919 0.00000
O222 O 0.11904 0.80338 0.69552 0.00000
C223 C 0.09514 0.65192 0.77675 0.00000
C224 C 0.10323 0.68513 0.78547 0.00000
C225 C 0.09900 0.67188 0.84207 0.00000
C226 C 0.09135 0.63854 0.83316 0.00000
C227 C 0.10642 0.76323 0.89824 0.00000
C228 C 0.18167 0.76815 0.77292 0.00000
C229 C 0.17565 0.74621 0.82081 0.00000
C230 C 0.12167 0.88836 0.80162 0.00000
C231 C 0.12278 0.85346 0.79391 0.00000
C232 C 0.12967 0.86622 0.73760 0.00000
C233 C 0.12898 0.90109 0.74560 0.00000
C234 C 0.12316 0.77470 0.68152 0.00000
C235 C 0.07592 0.77614 0.78563 0.00000
N236 N 0.10470 0.69527 0.81819 0.00000
N237 N 0.08974 0.62831 0.80056 0.00000
Zn238 Zn 0.12748 0.25524 0.79063 0.00000
N239 N 0.15436 0.22162 0.76933 0.00000
Zn240 Zn 0.11549 0.16352 0.74482 0.00000
H241 H 0.09342 0.24636 0.64610 0.00000
N242 N 0.15040 0.19039 0.75472 0.00000
H243 H 0.10774 0.23190 0.70059 0.00000
H244 H 0.10014 0.13482 0.67788 0.00000
N245 N 0.12631 0.23826 0.84240 0.00000
N246 N 0.12535 0.22237 0.91229 0.00000
N247 N 0.19585 0.20125 0.75401 0.00000
O248 O 0.11995 0.11735 0.78554 0.00000
O249 O 0.09780 0.11715 0.73690 0.00000
O250 O 0.08996 0.24144 0.77580 0.00000
O251 O 0.08549 0.18471 0.77211 0.00000
H252 H 0.11823 0.17583 0.89514 0.00000
H253 H 0.12104 0.18842 0.83749 0.00000
H254 H 0.13252 0.28507 0.85947 0.00000
O255 O 0.12857 0.30081 0.74890 0.00000
O256 O 0.11903 0.30448 0.80338 0.00000
C257 C 0.09513 0.22325 0.65192 0.00000
C258 C 0.10323 0.21453 0.68513 0.00000
C259 C 0.09900 0.15793 0.67188 0.00000
C260 C 0.09135 0.16684 0.63854 0.00000
C261 C 0.10641 0.10176 0.76323 0.00000
C262 C 0.18166 0.22708 0.76815 0.00000
C263 C 0.17564 0.17919 0.74621 0.00000
C264 C 0.12167 0.19838 0.88836 0.00000
C265 C 0.12278 0.20609 0.85346 0.00000
C266 C 0.12966 0.26240 0.86622 0.00000
C267 C 0.12898 0.25440 0.90109 0.00000
C268 C 0.12315 0.31848 0.77470 0.00000
C269 C 0.07592 0.21436 0.77614 0.00000
N270 N 0.10470 0.18181 0.69527 0.00000
N271 N 0.08974 0.19944 0.62831 0.00000
Zn272 Zn 0.62748 0.75524 0.29063 0.00000
N273 N 0.65437 0.72162 0.26933 0.00000
Zn274 Zn 0.61550 0.66352 0.24482 0.00000
H275 H 0.59343 0.74636 0.14610 0.00000
N276 N 0.65041 0.69038 0.25472 0.00000
H277 H 0.60775 0.73190 0.20058 0.00000
H278 H 0.60014 0.63482 0.17788 0.00000
N279 N 0.62631 0.73826 0.34239 0.00000
N280 N 0.62535 0.72237 0.41229 0.00000
N281 N 0.69585 0.70125 0.25400 0.00000
O282 O 0.61995 0.61734 0.28553 0.00000
O283 O 0.59780 0.61714 0.23689 0.00000
O284 O 0.58996 0.74144 0.27580 0.00000
O285 O 0.58550 0.68470 0.27211 0.00000
H286 H 0.61823 0.67583 0.39514 0.00000
H287 H 0.62105 0.68841 0.33748 0.00000
H288 H 0.63253 0.78507 0.35947 0.00000
O289 O 0.62857 0.80081 0.24889 0.00000
O290 O 0.61904 0.80447 0.30338 0.00000
C291 C 0.59514 0.72324 0.15192 0.00000
C292 C 0.60323 0.71453 0.18513 0.00000
C293 C 0.59900 0.65793 0.17187 0.00000
C294 C 0.59135 0.66684 0.13854 0.00000
C295 C 0.60642 0.60175 0.26323 0.00000
C296 C 0.68167 0.72707 0.26814 0.00000
C297 C 0.67565 0.67919 0.24621 0.00000
C298 C 0.62167 0.69838 0.38836 0.00000
C299 C 0.62278 0.70609 0.35346 0.00000
C300 C 0.62967 0.76240 0.36622 0.00000
C301 C 0.62898 0.75439 0.40109 0.00000
C302 C 0.62316 0.81847 0.27470 0.00000
C303 C 0.57592 0.71436 0.27613 0.00000
N304 N 0.60470 0.68181 0.19527 0.00000
N305 N 0.58974 0.69944 0.12831 0.00000
Zn306 Zn 0.37252 0.70937 0.24476 0.00000
N307 N 0.34564 0.73067 0.27838 0.00000
Zn308 Zn 0.38451 0.75518 0.33648 0.00000
H309 H 0.40658 0.85391 0.25364 0.00000
N310 N 0.34960 0.74528 0.30961 0.00000
H311 H 0.39226 0.79942 0.26810 0.00000
H312 H 0.39987 0.82212 0.36518 0.00000
N313 N 0.37369 0.65761 0.26174 0.00000
N314 N 0.37465 0.58771 0.27763 0.00000
N315 N 0.30415 0.74600 0.29875 0.00000
O316 O 0.38006 0.71447 0.38265 0.00000
O317 O 0.40221 0.76311 0.38285 0.00000
O318 O 0.41004 0.72420 0.25856 0.00000
O319 O 0.41451 0.72789 0.31529 0.00000
H320 H 0.38177 0.60487 0.32417 0.00000
H321 H 0.37896 0.66252 0.31159 0.00000
H322 H 0.36748 0.64053 0.21493 0.00000
O323 O 0.37143 0.75111 0.19919 0.00000
O324 O 0.38097 0.69662 0.19552 0.00000
C325 C 0.40487 0.84808 0.27676 0.00000
C326 C 0.39677 0.81488 0.28547 0.00000
C327 C 0.40100 0.82813 0.34207 0.00000
C328 C 0.40865 0.86146 0.33316 0.00000
C329 C 0.39359 0.73677 0.39825 0.00000
C330 C 0.31834 0.73186 0.27293 0.00000
C331 C 0.32436 0.75379 0.32081 0.00000
C332 C 0.37833 0.61164 0.30162 0.00000
C333 C 0.37722 0.64655 0.29391 0.00000
C334 C 0.37034 0.63379 0.23760 0.00000
C335 C 0.37102 0.59891 0.24561 0.00000
C336 C 0.37685 0.72530 0.18153 0.00000
C337 C 0.42408 0.72387 0.28564 0.00000
N338 N 0.39531 0.80474 0.31819 0.00000
N339 N 0.41027 0.87169 0.30056 0.00000
Zn340 Zn 0.37252 0.24477 0.29063 0.00000
N341 N 0.34563 0.27839 0.26933 0.00000
Zn342 Zn 0.38450 0.33648 0.24482 0.00000
H343 H 0.40658 0.25365 0.14610 0.00000
N344 N 0.34960 0.30962 0.25472 0.00000
H345 H 0.39225 0.26811 0.20058 0.00000
H346 H 0.39986 0.36519 0.17788 0.00000
N347 N 0.37369 0.26174 0.34239 0.00000
N348 N 0.37465 0.27764 0.41229 0.00000
N349 N 0.30415 0.29875 0.25400 0.00000
O350 O 0.38005 0.38266 0.28553 0.00000
O351 O 0.40220 0.38286 0.23689 0.00000
O352 O 0.41004 0.25857 0.27580 0.00000
O353 O 0.41450 0.31530 0.27211 0.00000
H354 H 0.38177 0.32417 0.39514 0.00000
H355 H 0.37895 0.31159 0.33748 0.00000
H356 H 0.36747 0.21493 0.35947 0.00000
O357 O 0.37143 0.19920 0.24889 0.00000
O358 O 0.38096 0.19553 0.30338 0.00000
C359 C 0.40486 0.27676 0.15192 0.00000
C360 C 0.39677 0.28548 0.18513 0.00000
C361 C 0.40100 0.34208 0.17187 0.00000
C362 C 0.40865 0.33316 0.13854 0.00000
C363 C 0.39358 0.39825 0.26323 0.00000
C364 C 0.31833 0.27293 0.26814 0.00000
C365 C 0.32435 0.32082 0.24621 0.00000
C366 C 0.37833 0.30163 0.38836 0.00000
C367 C 0.37722 0.29391 0.35346 0.00000
C368 C 0.37033 0.23761 0.36622 0.00000
C369 C 0.37102 0.24561 0.40109 0.00000
C370 C 0.37684 0.18153 0.27470 0.00000
C371 C 0.42408 0.28564 0.27613 0.00000
N372 N 0.39530 0.31819 0.19527 0.00000
N373 N 0.41026 0.30056 0.12831 0.00000
Zn374 Zn 0.62748 0.70937 0.75524 0.00000
N375 N 0.65437 0.73067 0.72162 0.00000
Zn376 Zn 0.61550 0.75518 0.66352 0.00000
H377 H 0.59343 0.85390 0.74636 0.00000
N378 N 0.65041 0.74528 0.69039 0.00000
H379 H 0.60775 0.79941 0.73190 0.00000
H380 H 0.60014 0.82212 0.63482 0.00000
N381 N 0.62631 0.65760 0.73826 0.00000
N382 N 0.62535 0.58771 0.72237 0.00000
N383 N 0.69585 0.74599 0.70125 0.00000
O384 O 0.61995 0.71446 0.61735 0.00000
O385 O 0.59780 0.76310 0.61715 0.00000
O386 O 0.58996 0.72420 0.74144 0.00000
O387 O 0.58550 0.72789 0.68471 0.00000
H388 H 0.61823 0.60486 0.67583 0.00000
H389 H 0.62105 0.66251 0.68842 0.00000
H390 H 0.63252 0.64052 0.78507 0.00000
O391 O 0.62857 0.75110 0.80081 0.00000
O392 O 0.61904 0.69662 0.80448 0.00000
C393 C 0.59514 0.84808 0.72325 0.00000
C394 C 0.60323 0.81487 0.71453 0.00000
C395 C 0.59900 0.82812 0.65793 0.00000
C396 C 0.59135 0.86146 0.66684 0.00000
C397 C 0.60642 0.73677 0.60176 0.00000
C398 C 0.68167 0.73185 0.72707 0.00000
C399 C 0.67565 0.75379 0.67919 0.00000
C400 C 0.62167 0.61164 0.69838 0.00000
C401 C 0.62278 0.64654 0.70609 0.00000
C402 C 0.62967 0.63378 0.76240 0.00000
C403 C 0.62898 0.59891 0.75440 0.00000
C404 C 0.62316 0.72530 0.81847 0.00000
C405 C 0.57592 0.72386 0.71436 0.00000
N406 N 0.60470 0.80473 0.68181 0.00000
N407 N 0.58974 0.87169 0.69944 0.00000
Zn408 Zn 0.37252 0.75524 0.70937 0.00000
N409 N 0.34564 0.72162 0.73067 0.00000
Zn410 Zn 0.38451 0.66353 0.75518 0.00000
H411 H 0.40658 0.74636 0.85390 0.00000
N412 N 0.34960 0.69039 0.74528 0.00000
H413 H 0.39226 0.73190 0.79942 0.00000
H414 H 0.39986 0.63482 0.82212 0.00000
N415 N 0.37369 0.73826 0.65761 0.00000
N416 N 0.37465 0.72237 0.58771 0.00000
N417 N 0.30415 0.70126 0.74600 0.00000
O418 O 0.38005 0.61735 0.71447 0.00000
O419 O 0.40220 0.61715 0.76311 0.00000
O420 O 0.41004 0.74144 0.72420 0.00000
O421 O 0.41451 0.68471 0.72789 0.00000
H422 H 0.38177 0.67583 0.60486 0.00000
H423 H 0.37896 0.68842 0.66252 0.00000
H424 H 0.36748 0.78508 0.64053 0.00000
O425 O 0.37143 0.80081 0.75111 0.00000
O426 O 0.38097 0.80448 0.69662 0.00000
C427 C 0.40487 0.72325 0.84808 0.00000
C428 C 0.39677 0.71453 0.81487 0.00000
C429 C 0.40100 0.65793 0.82813 0.00000
C430 C 0.40865 0.66685 0.86146 0.00000
C431 C 0.39359 0.60176 0.73677 0.00000
C432 C 0.31834 0.72708 0.73186 0.00000
C433 C 0.32436 0.67919 0.75379 0.00000
C434 C 0.37833 0.69838 0.61164 0.00000
C435 C 0.37722 0.70609 0.64654 0.00000
C436 C 0.37034 0.76240 0.63378 0.00000
C437 C 0.37102 0.75440 0.59891 0.00000
C438 C 0.37685 0.81848 0.72530 0.00000
C439 C 0.42408 0.71437 0.72387 0.00000
N440 N 0.39530 0.68181 0.80473 0.00000
N441 N 0.41027 0.69944 0.87169 0.00000
Zn442 Zn 0.37252 0.29063 0.75524 0.00000
N443 N 0.34563 0.26933 0.72162 0.00000
Zn444 Zn 0.38450 0.24482 0.66352 0.00000
H445 H 0.40657 0.14610 0.74636 0.00000
N446 N 0.34959 0.25472 0.69039 0.00000
H447 H 0.39225 0.20059 0.73190 0.00000
H448 H 0.39986 0.17788 0.63482 0.00000
N449 N 0.37369 0.34240 0.73826 0.00000
N450 N 0.37465 0.41229 0.72237 0.00000
N451 N 0.30415 0.25401 0.70125 0.00000
O452 O 0.38005 0.28554 0.61735 0.00000
O453 O 0.40220 0.23690 0.61715 0.00000
O454 O 0.41004 0.27580 0.74144 0.00000
O455 O 0.41450 0.27211 0.68471 0.00000
H456 H 0.38177 0.39514 0.67583 0.00000
H457 H 0.37895 0.33749 0.68841 0.00000
H458 H 0.36747 0.35947 0.78507 0.00000
O459 O 0.37143 0.24890 0.80081 0.00000
O460 O 0.38096 0.30338 0.80448 0.00000
C461 C 0.40486 0.15192 0.72324 0.00000
C462 C 0.39676 0.18513 0.71453 0.00000
C463 C 0.40100 0.17188 0.65793 0.00000
C464 C 0.40865 0.13854 0.66684 0.00000
C465 C 0.39358 0.26323 0.60175 0.00000
C466 C 0.31833 0.26815 0.72707 0.00000
C467 C 0.32435 0.24621 0.67919 0.00000
C468 C 0.37833 0.38836 0.69838 0.00000
C469 C 0.37722 0.35346 0.70609 0.00000
C470 C 0.37033 0.36622 0.76240 0.00000
C471 C 0.37102 0.40109 0.75440 0.00000
C472 C 0.37684 0.27470 0.81847 0.00000
C473 C 0.42408 0.27614 0.71436 0.00000
N474 N 0.39530 0.19527 0.68181 0.00000
N475 N 0.41026 0.12831 0.69944 0.00000
Zn476 Zn 0.62748 0.24476 0.70937 0.00000
N477 N 0.65436 0.27838 0.73067 0.00000
Zn478 Zn 0.61549 0.33648 0.75518 0.00000
H479 H 0.59342 0.25364 0.85390 0.00000
N480 N 0.65040 0.30961 0.74528 0.00000
H481 H 0.60774 0.26810 0.79941 0.00000
H482 H 0.60014 0.36518 0.82212 0.00000
N483 N 0.62631 0.26174 0.65760 0.00000
N484 N 0.62535 0.27763 0.58771 0.00000
N485 N 0.69585 0.29874 0.74599 0.00000
O486 O 0.61995 0.38265 0.71446 0.00000
O487 O 0.59780 0.38285 0.76310 0.00000
O488 O 0.58996 0.25856 0.72420 0.00000
O489 O 0.58549 0.31529 0.72789 0.00000
H490 H 0.61823 0.32417 0.60486 0.00000
H491 H 0.62104 0.31158 0.66251 0.00000
H492 H 0.63252 0.21493 0.64053 0.00000
O493 O 0.62857 0.19919 0.75110 0.00000
O494 O 0.61903 0.19552 0.69662 0.00000
C495 C 0.59513 0.27675 0.84808 0.00000
C496 C 0.60323 0.28547 0.81487 0.00000
C497 C 0.59900 0.34207 0.82812 0.00000
C498 C 0.59135 0.33316 0.86146 0.00000
C499 C 0.60641 0.39824 0.73677 0.00000
C500 C 0.68166 0.27292 0.73185 0.00000
C501 C 0.67564 0.32081 0.75379 0.00000
C502 C 0.62167 0.30162 0.61164 0.00000
C503 C 0.62278 0.29391 0.64654 0.00000
C504 C 0.62966 0.23760 0.63378 0.00000
C505 C 0.62898 0.24560 0.59891 0.00000
C506 C 0.62315 0.18152 0.72530 0.00000
C507 C 0.57592 0.28564 0.72386 0.00000
N508 N 0.60470 0.31819 0.80473 0.00000
N509 N 0.58974 0.30056 0.87169 0.00000
Zn510 Zn 0.62748 0.29063 0.24476 0.00000
N511 N 0.65436 0.26932 0.27838 0.00000
Zn512 Zn 0.61549 0.24482 0.33648 0.00000
H513 H 0.59342 0.14609 0.25364 0.00000
N514 N 0.65040 0.25472 0.30961 0.00000
H515 H 0.60774 0.20058 0.26810 0.00000
H516 H 0.60013 0.17788 0.36518 0.00000
N517 N 0.62631 0.34239 0.26174 0.00000
N518 N 0.62535 0.41228 0.27763 0.00000
N519 N 0.69585 0.25400 0.29875 0.00000
O520 O 0.61994 0.28553 0.38265 0.00000
O521 O 0.59779 0.23689 0.38285 0.00000
O522 O 0.58996 0.27580 0.25856 0.00000
O523 O 0.58549 0.27211 0.31530 0.00000
H524 H 0.61823 0.39513 0.32417 0.00000
H525 H 0.62104 0.33748 0.31159 0.00000
H526 H 0.63252 0.35947 0.21493 0.00000
O527 O 0.62857 0.24889 0.19919 0.00000
O528 O 0.61903 0.30338 0.19553 0.00000
C529 C 0.59513 0.15192 0.27676 0.00000
C530 C 0.60323 0.18512 0.28547 0.00000
C531 C 0.59900 0.17187 0.34207 0.00000
C532 C 0.59134 0.13854 0.33316 0.00000
C533 C 0.60641 0.26322 0.39825 0.00000
C534 C 0.68166 0.26814 0.27293 0.00000
C535 C 0.67564 0.24621 0.32081 0.00000
C536 C 0.62167 0.38836 0.30162 0.00000
C537 C 0.62278 0.35345 0.29391 0.00000
C538 C 0.62966 0.36621 0.23760 0.00000
C539 C 0.62898 0.40109 0.24561 0.00000
C540 C 0.62315 0.27470 0.18153 0.00000
C541 C 0.57592 0.27613 0.28564 0.00000
N542 N 0.60469 0.19526 0.31819 0.00000
N543 N 0.58973 0.12831 0.30056 0.00000
C544 C 0.70296 0.26459 0.72082 0.00000
C545 C 0.71352 0.28725 0.69455 0.00000
C546 C 0.74071 0.29064 0.68969 0.00000
C547 C 0.76005 0.27169 0.70969 0.00000
C548 C 0.75031 0.24835 0.73435 0.00000
C549 C 0.72107 0.24569 0.73960 0.00000
C550 C 0.76966 0.22929 0.75403 0.00000
C551 C 0.79723 0.23395 0.75000 0.00000
C552 C 0.80694 0.25951 0.72720 0.00000
C553 C 0.78910 0.27741 0.70659 0.00000
H554 H 0.70112 0.29970 0.68071 0.00000
H555 H 0.74718 0.30582 0.67267 0.00000
H556 H 0.71428 0.23046 0.75639 0.00000
H557 H 0.76325 0.21319 0.77019 0.00000
H558 H 0.82602 0.26429 0.72616 0.00000
H559 H 0.79594 0.29333 0.69052 0.00000
C560 C 0.70176 0.26954 0.26713 0.00000
C561 C 0.71030 0.27094 0.30264 0.00000
C562 C 0.73665 0.26557 0.31131 0.00000
C563 C 0.75716 0.25894 0.28596 0.00000
C564 C 0.74965 0.25895 0.25115 0.00000
C565 C 0.72116 0.26406 0.24251 0.00000
C566 C 0.77022 0.25262 0.22592 0.00000
C567 C 0.79668 0.24572 0.23498 0.00000
C568 C 0.80369 0.24289 0.27013 0.00000
C569 C 0.78485 0.25029 0.29530 0.00000
H570 H 0.69716 0.27573 0.31981 0.00000
H571 H 0.74174 0.26623 0.33464 0.00000
H572 H 0.71578 0.26367 0.21927 0.00000
H573 H 0.76539 0.25317 0.20252 0.00000
H574 H 0.82164 0.23581 0.27632 0.00000
H575 H 0.79011 0.24970 0.31856 0.00000
C576 C 0.79704 0.78208 0.23831 0.00000
C577 C 0.78706 0.81452 0.22528 0.00000
C578 C 0.76011 0.82192 0.22585 0.00000
C579 C 0.74051 0.79850 0.23979 0.00000
C580 C 0.74979 0.76745 0.25401 0.00000
C581 C 0.77872 0.75976 0.25245 0.00000
C582 C 0.73019 0.74430 0.26815 0.00000
C583 C 0.70276 0.75131 0.26731 0.00000
C584 C 0.69331 0.78124 0.25042 0.00000
C585 C 0.71150 0.80503 0.23779 0.00000
H586 H 0.79968 0.83059 0.21634 0.00000
H587 H 0.75399 0.84306 0.21689 0.00000
H588 H 0.78517 0.73880 0.26149 0.00000
H589 H 0.73634 0.72371 0.27824 0.00000
H590 H 0.67416 0.78487 0.24784 0.00000
H591 H 0.70494 0.82551 0.22788 0.00000
C592 C 0.19768 0.75363 0.24117 0.00000
C593 C 0.19484 0.75948 0.27762 0.00000
C594 C 0.21650 0.75595 0.29856 0.00000
C595 C 0.24307 0.74694 0.28565 0.00000
C596 C 0.24668 0.74261 0.25015 0.00000
C597 C 0.22301 0.74583 0.22829 0.00000
C598 C 0.27326 0.73392 0.23736 0.00000
C599 C 0.29489 0.72891 0.25889 0.00000
C600 C 0.29065 0.73049 0.29478 0.00000
C601 C 0.26571 0.74027 0.30821 0.00000
H602 H 0.17755 0.76589 0.28668 0.00000
H603 H 0.21415 0.75952 0.32229 0.00000
H604 H 0.22508 0.74252 0.20446 0.00000
H605 H 0.27590 0.73155 0.21354 0.00000
H606 H 0.30527 0.72471 0.30971 0.00000
H607 H 0.26351 0.74260 0.33211 0.00000
C608 C 0.29798 0.25342 0.28475 0.00000
C609 C 0.29168 0.24250 0.31931 0.00000
C610 C 0.26625 0.23207 0.32760 0.00000
C611 C 0.24476 0.23080 0.30266 0.00000
C612 C 0.25064 0.23982 0.26853 0.00000
C613 C 0.27792 0.25161 0.26041 0.00000
C614 C 0.22921 0.23823 0.24367 0.00000
C615 C 0.20316 0.22906 0.25256 0.00000
C616 C 0.19678 0.22277 0.28744 0.00000
C617 C 0.21701 0.22249 0.31202 0.00000
H618 H 0.30565 0.24269 0.33613 0.00000
H619 H 0.26249 0.22539 0.35037 0.00000
H620 H 0.28203 0.25818 0.23770 0.00000
H621 H 0.23315 0.24370 0.22065 0.00000
H622 H 0.17829 0.21868 0.29386 0.00000
H623 H 0.21267 0.21686 0.33489 0.00000
C624 C 0.79706 0.76120 0.78243 0.00000
C625 C 0.78723 0.77270 0.81551 0.00000
C626 C 0.76035 0.77149 0.82318 0.00000
C627 C 0.74067 0.75836 0.79939 0.00000
C628 C 0.74982 0.74560 0.76766 0.00000
C629 C 0.77868 0.74782 0.75972 0.00000
C630 C 0.73015 0.73225 0.74413 0.00000
C631 C 0.70277 0.73247 0.75147 0.00000
C632 C 0.69343 0.74794 0.78221 0.00000
C633 C 0.71170 0.75974 0.80632 0.00000
H634 H 0.79991 0.78107 0.83182 0.00000
H635 H 0.75432 0.77946 0.84475 0.00000
H636 H 0.78504 0.73978 0.73832 0.00000
H637 H 0.73621 0.72314 0.72305 0.00000
H638 H 0.67428 0.75015 0.78616 0.00000
H639 H 0.70522 0.76867 0.82729 0.00000
C640 C 0.30303 0.75313 0.73860 0.00000
C641 C 0.30873 0.76707 0.77223 0.00000
C642 C 0.28824 0.77874 0.79201 0.00000
C643 C 0.26022 0.77729 0.78092 0.00000
C644 C 0.25399 0.76248 0.74899 0.00000
C645 C 0.27636 0.75078 0.72792 0.00000
C646 C 0.22599 0.76081 0.73815 0.00000
C647 C 0.20542 0.77405 0.75769 0.00000
C648 C 0.21199 0.79150 0.78847 0.00000
C649 C 0.23853 0.79239 0.80068 0.00000
H650 H 0.32707 0.76787 0.78029 0.00000
H651 H 0.29243 0.78807 0.81370 0.00000
H652 H 0.27248 0.74121 0.70624 0.00000
H653 H 0.22165 0.75039 0.71703 0.00000
H654 H 0.19785 0.80269 0.80081 0.00000
H655 H 0.24244 0.80285 0.82191 0.00000
C656 C 0.19720 0.25779 0.76742 0.00000
C657 C 0.19104 0.28806 0.74739 0.00000
C658 C 0.21134 0.30645 0.73322 0.00000
C659 C 0.23952 0.29656 0.73684 0.00000
C660 C 0.24600 0.26642 0.75488 0.00000
C661 C 0.22392 0.24751 0.77047 0.00000
C662 C 0.27412 0.25649 0.75818 0.00000
C663 C 0.29470 0.27606 0.74501 0.00000
C664 C 0.28826 0.30784 0.72936 0.00000
C665 C 0.26140 0.31771 0.72425 0.00000
H666 H 0.17253 0.29484 0.74427 0.00000
H667 H 0.20690 0.32630 0.72056 0.00000
H668 H 0.22802 0.22748 0.78304 0.00000
H669 H 0.27855 0.23600 0.76976 0.00000
H670 H 0.30271 0.32247 0.72232 0.00000
H671 H 0.25740 0.33825 0.71252 0.00000
C672 C 0.88300 0.06626 0.73455 0.00000
C673 C 0.91097 0.06792 0.72165 0.00000
C674 C 0.92710 0.04012 0.72180 0.00000
C675 C 0.91717 0.00796 0.73404 0.00000
C676 C 0.88968 0.00528 0.74530 0.00000
C677 C 0.87295 0.03562 0.74556 0.00000
C678 C 0.87979 0.97309 0.75720 0.00000
C679 C 0.89662 0.94533 0.75868 0.00000
C680 C 0.92489 0.94883 0.75004 0.00000
C681 C 0.93504 0.97893 0.73699 0.00000
H682 H 0.91786 0.08881 0.71301 0.00000
H683 H 0.94537 0.04183 0.71362 0.00000
H684 H 0.85458 0.03426 0.75349 0.00000
H685 H 0.86125 0.97101 0.76424 0.00000
H686 H 0.93694 0.93009 0.75331 0.00000
H687 H 0.95363 0.98046 0.73000 0.00000
C688 C 0.05240 0.20767 0.21393 0.00000
C689 C 0.05070 0.17370 0.19921 0.00000
C690 C 0.02621 0.15873 0.19414 0.00000
C691 C 0.00110 0.17590 0.20246 0.00000
C692 C 0.00213 0.20952 0.21537 0.00000
C693 C 0.02865 0.22477 0.22126 0.00000
C694 C 0.97703 0.22666 0.22335 0.00000
C695 C 0.95230 0.21078 0.21955 0.00000
C696 C 0.95146 0.17597 0.20927 0.00000
C697 C 0.97502 0.15891 0.19984 0.00000
H698 H 0.06701 0.16203 0.19310 0.00000
H699 H 0.02555 0.13642 0.18486 0.00000
H700 H 0.02963 0.24715 0.23035 0.00000
H701 H 0.97757 0.24941 0.23147 0.00000
H702 H 0.93439 0.16432 0.20889 0.00000
H703 H 0.97403 0.13620 0.19169 0.00000
C704 C 0.87638 0.93737 0.27579 0.00000
C705 C 0.88099 0.94590 0.31143 0.00000
C706 C 0.88752 0.97790 0.32064 0.00000
C707 C 0.88965 0.00464 0.29586 0.00000
C708 C 0.88406 0.99737 0.26125 0.00000
C709 C 0.87767 0.96271 0.25190 0.00000
C710 C 0.88597 0.02418 0.23667 0.00000
C711 C 0.89377 0.05627 0.24597 0.00000
C712 C 0.90161 0.06281 0.28033 0.00000
C713 C 0.89891 0.03818 0.30518 0.00000
H714 H 0.87934 0.92873 0.32831 0.00000
H715 H 0.89073 0.98286 0.34396 0.00000
H716 H 0.87424 0.95740 0.22868 0.00000
H717 H 0.88180 0.01959 0.21352 0.00000
H718 H 0.90881 0.08451 0.28623 0.00000
H719 H 0.90312 0.04331 0.32821 0.00000
C720 C 0.94775 0.77266 0.22785 0.00000
C721 C 0.94931 0.76184 0.26327 0.00000
C722 C 0.97375 0.75837 0.27883 0.00000
C723 C 0.99889 0.76575 0.26132 0.00000
C724 C 0.99789 0.77778 0.22736 0.00000
C725 C 0.97148 0.78061 0.21098 0.00000
C726 C 0.02301 0.78540 0.21009 0.00000
C727 C 0.04778 0.78040 0.22553 0.00000
C728 C 0.04878 0.76559 0.25866 0.00000
C729 C 0.02511 0.75928 0.27687 0.00000
H730 H 0.93294 0.75724 0.27550 0.00000
H731 H 0.97433 0.75093 0.30183 0.00000
H732 H 0.97055 0.78821 0.18805 0.00000
H733 H 0.02244 0.79401 0.18753 0.00000
H734 H 0.06605 0.76000 0.26838 0.00000
H735 H 0.02611 0.75075 0.29945 0.00000
C736 C 0.13788 0.06152 0.26299 0.00000
C737 C 0.16592 0.05356 0.25299 0.00000
C738 C 0.17284 0.02179 0.24343 0.00000
C739 C 0.15282 0.99502 0.24219 0.00000
C740 C 0.12518 0.00241 0.25030 0.00000
C741 C 0.11837 0.03651 0.26118 0.00000
C742 C 0.10524 0.97570 0.24874 0.00000
C743 C 0.11262 0.94319 0.24046 0.00000
C744 C 0.14083 0.93524 0.23511 0.00000
C745 C 0.16058 0.96041 0.23484 0.00000
H746 H 0.17942 0.07095 0.25319 0.00000
H747 H 0.19129 0.01704 0.23736 0.00000
H748 H 0.09995 0.04169 0.26713 0.00000
H749 H 0.08659 0.98064 0.25359 0.00000
H750 H 0.14611 0.91220 0.23166 0.00000
H751 H 0.17910 0.95496 0.22983 0.00000
C752 C 0.94832 0.78744 0.76663 0.00000
C753 C 0.95159 0.78982 0.72984 0.00000
C754 C 0.97673 0.78982 0.71569 0.00000
C755 C 0.00010 0.78688 0.73621 0.00000
C756 C 0.99833 0.78300 0.77189 0.00000
C757 C 0.97118 0.78379 0.78655 0.00000
C758 C 0.02255 0.77977 0.79223 0.00000
C759 C 0.04803 0.78129 0.77787 0.00000
C760 C 0.05065 0.78808 0.74234 0.00000
C761 C 0.02791 0.78983 0.72150 0.00000
H762 H 0.93585 0.79134 0.71572 0.00000
H763 H 0.97843 0.79177 0.69168 0.00000
H764 H 0.96914 0.78167 0.81051 0.00000
H765 H 0.02089 0.77658 0.81609 0.00000
H766 H 0.06838 0.79143 0.73285 0.00000
H767 H 0.03001 0.79293 0.69767 0.00000
C768 C 0.11515 0.75238 0.93565 0.00000
C769 C 0.13308 0.72360 0.92851 0.00000
C770 C 0.14509 0.70631 0.95407 0.00000
C771 C 0.14025 0.71522 0.98900 0.00000
C772 C 0.12195 0.74211 0.99669 0.00000
C773 C 0.10977 0.76075 0.96883 0.00000
C774 C 0.11700 0.75072 0.03157 0.00000
C775 C 0.13017 0.73404 0.05734 0.00000
C776 C 0.15031 0.70894 0.04941 0.00000
C777 C 0.15486 0.69873 0.01626 0.00000
H778 H 0.13630 0.71696 0.90562 0.00000
H779 H 0.15695 0.68785 0.94886 0.00000
H780 H 0.09773 0.77915 0.97364 0.00000
H781 H 0.10439 0.76835 0.03689 0.00000
H782 H 0.16077 0.69905 0.06728 0.00000
H783 H 0.16750 0.68098 0.01147 0.00000
C784 C 0.88299 0.26547 0.06626 0.00000
C785 C 0.91095 0.27843 0.06791 0.00000
C786 C 0.92707 0.27830 0.04009 0.00000
C787 C 0.91715 0.26603 0.00795 0.00000
C788 C 0.88968 0.25472 0.00528 0.00000
C789 C 0.87295 0.25443 0.03562 0.00000
C790 C 0.87979 0.24278 0.97310 0.00000
C791 C 0.89662 0.24132 0.94533 0.00000
C792 C 0.92488 0.25002 0.94881 0.00000
C793 C 0.93501 0.26311 0.97891 0.00000
H794 H 0.91784 0.28708 0.08878 0.00000
H795 H 0.94533 0.28652 0.04179 0.00000
H796 H 0.85459 0.24646 0.03428 0.00000
H797 H 0.86126 0.23571 0.97102 0.00000
H798 H 0.93693 0.24677 0.93007 0.00000
H799 H 0.95360 0.27013 0.98043 0.00000
C800 C 0.86216 0.73798 0.93829 0.00000
C801 C 0.83469 0.75058 0.94561 0.00000
C802 C 0.82801 0.76121 0.97712 0.00000
C803 C 0.84775 0.76106 0.00422 0.00000
C804 C 0.87493 0.75039 0.99743 0.00000
C805 C 0.88145 0.73842 0.96362 0.00000
C806 C 0.89462 0.75056 0.02447 0.00000
C807 C 0.88739 0.75997 0.05673 0.00000
C808 C 0.85949 0.76795 0.06410 0.00000
C809 C 0.84008 0.76961 0.03857 0.00000
H810 H 0.82139 0.75133 0.92798 0.00000
H811 H 0.80990 0.76899 0.98145 0.00000
H812 H 0.89952 0.73075 0.95885 0.00000
H813 H 0.91298 0.74398 0.01993 0.00000
H814 H 0.85417 0.77221 0.08699 0.00000
H815 H 0.82183 0.77635 0.04362 0.00000
C816 C 0.13778 0.26127 0.93813 0.00000
C817 C 0.16470 0.24671 0.94494 0.00000
C818 C 0.17115 0.23526 0.97623 0.00000
C819 C 0.15168 0.23647 0.00361 0.00000
C820 C 0.12496 0.24909 0.99731 0.00000
C821 C 0.11871 0.26188 0.96372 0.00000
C822 C 0.10553 0.24997 0.02461 0.00000
C823 C 0.11258 0.23970 0.05666 0.00000
C824 C 0.14015 0.22971 0.06356 0.00000
C825 C 0.15924 0.22700 0.03776 0.00000
H826 H 0.17779 0.24523 0.92712 0.00000
H827 H 0.18892 0.22619 0.98023 0.00000
H828 H 0.10097 0.27084 0.95928 0.00000
H829 H 0.08745 0.25786 0.02039 0.00000
H830 H 0.14545 0.22482 0.08633 0.00000
H831 H 0.17719 0.21895 0.04248 0.00000
C832 C 0.59719 0.73602 0.55764 0.00000
C833 C 0.57256 0.71901 0.54537 0.00000
C834 C 0.56705 0.71747 0.51182 0.00000
C835 C 0.58539 0.73192 0.48716 0.00000
C836 C 0.61008 0.74725 0.49831 0.00000
C837 C 0.61527 0.74922 0.53446 0.00000
C838 C 0.62843 0.76136 0.47360 0.00000
C839 C 0.62214 0.76103 0.43972 0.00000
C840 C 0.59623 0.74816 0.42885 0.00000
C841 C 0.57844 0.73292 0.45155 0.00000
H842 H 0.56031 0.70888 0.56117 0.00000
H843 H 0.55073 0.70658 0.50436 0.00000
H844 H 0.63158 0.75986 0.54229 0.00000
H845 H 0.64523 0.77115 0.48089 0.00000
H846 H 0.59114 0.75009 0.40557 0.00000
H847 H 0.56178 0.72318 0.44374 0.00000
C848 C 0.38263 0.74194 0.43618 0.00000
C849 C 0.35583 0.75686 0.42948 0.00000
C850 C 0.34017 0.76846 0.45521 0.00000
C851 C 0.34953 0.76706 0.48983 0.00000
C852 C 0.37600 0.75408 0.49690 0.00000
C853 C 0.39218 0.74113 0.46896 0.00000
C854 C 0.38535 0.75300 0.53144 0.00000
C855 C 0.36889 0.76343 0.55758 0.00000
C856 C 0.34142 0.77379 0.55065 0.00000
C857 C 0.33194 0.77669 0.51766 0.00000
H858 H 0.34936 0.75847 0.40674 0.00000
H859 H 0.32263 0.77777 0.45034 0.00000
H860 H 0.40983 0.73193 0.47341 0.00000
H861 H 0.40325 0.74486 0.53627 0.00000
H862 H 0.32945 0.77879 0.56907 0.00000
H863 H 0.31399 0.78499 0.51336 0.00000
C864 C 0.38295 0.23418 0.43382 0.00000
C865 C 0.41063 0.22029 0.43242 0.00000
C866 C 0.42664 0.22004 0.46033 0.00000
C867 C 0.41685 0.23280 0.49235 0.00000
C868 C 0.38962 0.24503 0.49478 0.00000
C869 C 0.37303 0.24571 0.46433 0.00000
C870 C 0.37987 0.25747 0.52684 0.00000
C871 C 0.39661 0.25852 0.55470 0.00000
C872 C 0.42468 0.24887 0.55145 0.00000
C873 C 0.43465 0.23529 0.52149 0.00000
H874 H 0.41741 0.21130 0.41163 0.00000
H875 H 0.44472 0.21120 0.45879 0.00000
H876 H 0.35484 0.25429 0.46552 0.00000
H877 H 0.36148 0.26516 0.52876 0.00000
H878 H 0.43672 0.25182 0.57025 0.00000
H879 H 0.45308 0.22765 0.52012 0.00000
C880 C 0.55234 0.70816 0.71207 0.00000
C881 C 0.55044 0.67669 0.69259 0.00000
C882 C 0.52587 0.66276 0.68556 0.00000
C883 C 0.50087 0.67868 0.69644 0.00000
C884 C 0.50208 0.71007 0.71409 0.00000
C885 C 0.52869 0.72415 0.72195 0.00000
C886 C 0.47708 0.72601 0.72463 0.00000
C887 C 0.45227 0.71099 0.71872 0.00000
C888 C 0.45126 0.67804 0.70351 0.00000
C889 C 0.47471 0.66240 0.69155 0.00000
H890 H 0.56669 0.66595 0.68474 0.00000
H891 H 0.52509 0.64204 0.67313 0.00000
H892 H 0.52980 0.74497 0.73419 0.00000
H893 H 0.47775 0.74733 0.73596 0.00000
H894 H 0.43413 0.66666 0.70155 0.00000
H895 H 0.47359 0.64112 0.68019 0.00000
C896 C 0.38473 0.56435 0.74742 0.00000
C897 C 0.36635 0.57151 0.77577 0.00000
C898 C 0.35416 0.54597 0.79288 0.00000
C899 C 0.35923 0.51103 0.78421 0.00000
C900 C 0.37795 0.50332 0.75777 0.00000
C901 C 0.39032 0.53116 0.73931 0.00000
C902 C 0.38312 0.46842 0.74940 0.00000
C903 C 0.36978 0.44267 0.76587 0.00000
C904 C 0.34925 0.45059 0.79049 0.00000
C905 C 0.34445 0.48377 0.80047 0.00000
H906 H 0.36297 0.59441 0.78225 0.00000
H907 H 0.34202 0.55119 0.81105 0.00000
H908 H 0.40264 0.52633 0.72120 0.00000
H909 H 0.39600 0.46310 0.73209 0.00000
H910 H 0.33869 0.43272 0.80020 0.00000
H911 H 0.33155 0.48856 0.81791 0.00000
C912 C 0.44817 0.26624 0.71857 0.00000
C913 C 0.45092 0.23215 0.73278 0.00000
C914 C 0.47585 0.21911 0.73961 0.00000
C915 C 0.50035 0.23847 0.73371 0.00000
C916 C 0.49820 0.27222 0.72136 0.00000
C917 C 0.47128 0.28540 0.71355 0.00000
C918 C 0.52268 0.29155 0.71580 0.00000
C919 C 0.54796 0.27764 0.72136 0.00000
C920 C 0.55013 0.24274 0.73105 0.00000
C921 C 0.52710 0.22360 0.73819 0.00000
H922 H 0.43499 0.21904 0.73731 0.00000
H923 H 0.47721 0.19670 0.74852 0.00000
H924 H 0.46957 0.30785 0.70480 0.00000
H925 H 0.52134 0.31438 0.70806 0.00000
H926 H 0.56774 0.23251 0.73264 0.00000
H927 H 0.52888 0.20083 0.74600 0.00000
C928 C 0.61698 0.56633 0.76512 0.00000
C929 C 0.58876 0.56822 0.77714 0.00000
C930 C 0.57253 0.54051 0.77663 0.00000
C931 C 0.58258 0.50824 0.76486 0.00000
C932 C 0.61027 0.50534 0.75447 0.00000
C933 C 0.62712 0.53558 0.75457 0.00000
C934 C 0.62027 0.47303 0.74303 0.00000
C935 C 0.60337 0.44536 0.74117 0.00000
C936 C 0.57495 0.44907 0.74892 0.00000
C937 C 0.56466 0.47929 0.76151 0.00000
H938 H 0.58178 0.58919 0.78546 0.00000
H939 H 0.55411 0.54237 0.78424 0.00000
H940 H 0.64564 0.53407 0.74722 0.00000
H941 H 0.63894 0.47080 0.73658 0.00000
H942 H 0.56290 0.43039 0.74537 0.00000
H943 H 0.54594 0.48097 0.76791 0.00000
C944 C 0.55182 0.28109 0.29674 0.00000
C945 C 0.54852 0.27783 0.33346 0.00000
C946 C 0.52338 0.27747 0.34759 0.00000
C947 C 0.49912 0.27967 0.32700 0.00000
C948 C 0.50171 0.28133 0.29114 0.00000
C949 C 0.52890 0.28239 0.27663 0.00000
C950 C 0.47745 0.28322 0.27070 0.00000
C951 C 0.45204 0.28435 0.28527 0.00000
C952 C 0.44961 0.28558 0.32144 0.00000
C953 C 0.47232 0.28226 0.34216 0.00000
H954 H 0.56426 0.27589 0.34755 0.00000
H955 H 0.52168 0.27570 0.37161 0.00000
H956 H 0.53092 0.28396 0.25263 0.00000
H957 H 0.47905 0.28375 0.24662 0.00000
H958 H 0.43204 0.28871 0.33144 0.00000
H959 H 0.47028 0.28169 0.36619 0.00000
C960 C 0.63787 0.43858 0.23649 0.00000
C961 C 0.66615 0.44688 0.24505 0.00000
C962 C 0.67317 0.47878 0.25403 0.00000
C963 C 0.65305 0.50538 0.25603 0.00000
C964 C 0.62521 0.49767 0.24932 0.00000
C965 C 0.61828 0.46343 0.23905 0.00000
C966 C 0.60518 0.52421 0.25164 0.00000
C967 C 0.61261 0.55685 0.25931 0.00000
C968 C 0.64092 0.56510 0.26322 0.00000
C969 C 0.66081 0.54011 0.26274 0.00000
H970 H 0.67975 0.42960 0.24434 0.00000
H971 H 0.69177 0.48375 0.25916 0.00000
H972 H 0.59972 0.45803 0.23402 0.00000
H973 H 0.58642 0.51906 0.24773 0.00000
H974 H 0.64616 0.58821 0.26624 0.00000
H975 H 0.67945 0.54577 0.26681 0.00000
C976 C 0.44832 0.72454 0.29629 0.00000
C977 C 0.45189 0.74282 0.32825 0.00000
C978 C 0.47715 0.74935 0.34042 0.00000
C979 C 0.50125 0.73912 0.32211 0.00000
C980 C 0.49838 0.72267 0.29025 0.00000
C981 C 0.47107 0.71530 0.27806 0.00000
C982 C 0.52247 0.71277 0.27193 0.00000
C983 C 0.54803 0.71815 0.28512 0.00000
C984 C 0.55079 0.73210 0.31847 0.00000
C985 C 0.52822 0.74343 0.33641 0.00000
H986 H 0.43626 0.75023 0.34058 0.00000
H987 H 0.47903 0.76098 0.36149 0.00000
H988 H 0.46886 0.70386 0.25693 0.00000
H989 H 0.52067 0.70225 0.25029 0.00000
H990 H 0.56848 0.73365 0.32850 0.00000
H991 H 0.53046 0.75397 0.35798 0.00000
C992 C 0.38242 0.43643 0.25964 0.00000
C993 C 0.35429 0.43019 0.24888 0.00000
C994 C 0.33809 0.45612 0.23900 0.00000
C995 C 0.34810 0.49048 0.23817 0.00000
C996 C 0.37573 0.49705 0.24704 0.00000
C997 C 0.39254 0.46893 0.25824 0.00000
C998 C 0.38569 0.53132 0.24589 0.00000
C999 C 0.36881 0.55770 0.23727 0.00000
C1000 C 0.34044 0.55135 0.23115 0.00000
C1001 C 0.33020 0.51860 0.23046 0.00000
H1002 H 0.34733 0.40763 0.24879 0.00000
H1003 H 0.31971 0.45156 0.23242 0.00000
H1004 H 0.41101 0.47307 0.26470 0.00000
H1005 H 0.40432 0.53580 0.25125 0.00000
H1006 H 0.32839 0.57001 0.22746 0.00000
H1007 H 0.31152 0.51464 0.22494 0.00000
C1008 C 0.61814 0.23002 0.56511 0.00000
C1009 C 0.59556 0.20581 0.56326 0.00000
C1010 C 0.58165 0.20130 0.53401 0.00000
C1011 C 0.58887 0.21965 0.50370 0.00000
C1012 C 0.61151 0.24221 0.50439 0.00000
C1013 C 0.62575 0.24715 0.53625 0.00000
C1014 C 0.61879 0.26023 0.47403 0.00000
C1015 C 0.60384 0.25667 0.44483 0.00000
C1016 C 0.57971 0.23616 0.44502 0.00000
C1017 C 0.57260 0.21712 0.47322 0.00000
H1018 H 0.59065 0.19306 0.58286 0.00000
H1019 H 0.56681 0.18566 0.53343 0.00000
H1020 H 0.64074 0.26257 0.53717 0.00000
H1021 H 0.63423 0.27495 0.47419 0.00000
H1022 H 0.56834 0.23558 0.42538 0.00000
H1023 H 0.55713 0.20248 0.47250 0.00000
C1024 C 0.11761 0.06345 0.76036 0.00000
C1025 C 0.14622 0.06943 0.75153 0.00000
C1026 C 0.16262 0.04340 0.74245 0.00000
C1027 C 0.15238 0.00918 0.74059 0.00000
C1028 C 0.12436 0.00288 0.74755 0.00000
C1029 C 0.10732 0.03110 0.75794 0.00000
C1030 C 0.11419 0.96875 0.74537 0.00000
C1031 C 0.13120 0.94225 0.73759 0.00000
C1032 C 0.15984 0.94829 0.73341 0.00000
C1033 C 0.17036 0.98092 0.73376 0.00000
H1034 H 0.15335 0.09191 0.75215 0.00000
H1035 H 0.18128 0.04779 0.73715 0.00000
H1036 H 0.08856 0.02713 0.76313 0.00000
H1037 H 0.09532 0.96446 0.74945 0.00000
H1038 H 0.17189 0.92952 0.73031 0.00000
H1039 H 0.18928 0.98468 0.72952 0.00000
C1040 C 0.94762 0.20787 0.78696 0.00000
C1041 C 0.94942 0.17499 0.80398 0.00000
C1042 C 0.97395 0.16048 0.80999 0.00000
C1043 C 0.99990 0.17711 0.80044 0.00000
C1044 C 0.99789 0.20976 0.78525 0.00000
C1045 C 0.97133 0.22449 0.77840 0.00000
C1046 C 0.02295 0.22638 0.77603 0.00000
C1047 C 0.04771 0.21087 0.78085 0.00000
C1048 C 0.04863 0.17684 0.79349 0.00000
C1049 C 0.02512 0.16042 0.80415 0.00000
H1050 H 0.93314 0.16373 0.81093 0.00000
H1051 H 0.97466 0.13886 0.82079 0.00000
H1052 H 0.97029 0.24619 0.76779 0.00000
H1053 H 0.02234 0.24851 0.76637 0.00000
H1054 H 0.06573 0.16529 0.79463 0.00000
H1055 H 0.02617 0.13832 0.81384 0.00000
loop_
_geom_bond_atom_site_label_1
_geom_bond_atom_site_label_2
_geom_bond_distance
_geom_bond_site_symmetry_2
_ccdc_geom_bond_type
Zn0 N1 2.020 . S
Zn0 N7 2.119 . S
Zn0 O12 1.975 . S
Zn0 O17 2.403 . S
Zn0 O18 2.019 . S
N1 N4 1.354 . A
N1 C24 1.336 . A
Zn2 N4 2.020 . S
Zn2 O10 2.403 . S
Zn2 O11 2.019 . S
Zn2 O13 1.975 . S
Zn2 N32 2.119 . S
H3 C19 0.930 . S
N4 C25 1.336 . A
H5 C20 0.930 . S
H6 C21 0.930 . S
N7 C27 1.334 . A
N7 C28 1.328 . A
N8 C26 1.329 . A
N8 C29 1.331 . A
N9 C24 1.334 . A
N9 C25 1.334 . A
O10 C23 1.244 . A
O11 C23 1.257 . A
O12 C31 1.252 . A
O13 C31 1.252 . A
H14 C26 0.930 . S
H15 C27 0.930 . S
H16 C28 0.930 . S
O17 C30 1.244 . A
O18 C30 1.257 . A
C19 C20 1.391 . A
C19 N33 1.329 . A
C20 N32 1.334 . A
C21 C22 1.392 . A
C21 N32 1.329 . A
C22 N33 1.331 . A
C26 C27 1.391 . A
C28 C29 1.392 . A
Zn34 N35 2.020 . S
Zn34 N41 2.119 . S
Zn34 O46 1.975 . S
Zn34 O51 2.403 . S
Zn34 O52 2.019 . S
N35 N38 1.354 . A
N35 C58 1.336 . A
Zn36 N38 2.020 . S
Zn36 O44 2.403 . S
Zn36 O45 2.019 . S
Zn36 O47 1.975 . S
Zn36 N66 2.119 . S
H37 C53 0.930 . S
N38 C59 1.336 . A
H39 C54 0.930 . S
H40 C55 0.930 . S
N41 C61 1.334 . A
N41 C62 1.328 . A
N42 C60 1.329 . A
N42 C63 1.331 . A
N43 C58 1.334 . A
N43 C59 1.334 . A
O44 C57 1.244 . A
O45 C57 1.257 . A
O46 C65 1.252 . A
O47 C65 1.252 . A
H48 C60 0.930 . S
H49 C61 0.930 . S
H50 C62 0.930 . S
O51 C64 1.244 . A
O52 C64 1.257 . A
C53 C54 1.391 . A
C53 N67 1.329 . A
C54 N66 1.334 . A
C55 C56 1.392 . A
C55 N66 1.329 . A
C56 N67 1.331 . A
C60 C61 1.391 . A
C62 C63 1.392 . A
Zn68 N69 2.020 . S
Zn68 N75 2.119 . S
Zn68 O80 1.975 . S
Zn68 O85 2.403 . S
Zn68 O86 2.019 . S
N69 N72 1.354 . A
N69 C92 1.336 . A
Zn70 N72 2.020 . S
Zn70 O78 2.403 . S
Zn70 O79 2.019 . S
Zn70 O81 1.975 . S
Zn70 N100 2.119 . S
H71 C87 0.930 . S
N72 C93 1.336 . A
H73 C88 0.930 . S
H74 C89 0.930 . S
N75 C95 1.334 . A
N75 C96 1.328 . A
N76 C94 1.329 . A
N76 C97 1.331 . A
N77 C92 1.334 . A
N77 C93 1.334 . A
O78 C91 1.244 . A
O79 C91 1.257 . A
O80 C99 1.252 . A
O81 C99 1.252 . A
H82 C94 0.930 . S
H83 C95 0.930 . S
H84 C96 0.930 . S
O85 C98 1.244 . A
O86 C98 1.257 . A
C87 C88 1.391 . A
C87 N101 1.329 . A
C88 N100 1.334 . A
C89 C90 1.392 . A
C89 N100 1.329 . A
C90 N101 1.331 . A
C94 C95 1.391 . A
C96 C97 1.392 . A
Zn102 N103 2.020 . S
Zn102 N109 2.119 . S
Zn102 O114 1.975 . S
Zn102 O119 2.403 . S
Zn102 O120 2.019 . S
N103 N106 1.354 . A
N103 C126 1.336 . A
Zn104 N106 2.020 . S
Zn104 O112 2.403 . S
Zn104 O113 2.019 . S
Zn104 O115 1.975 . S
Zn104 N134 2.119 . S
H105 C121 0.930 . S
N106 C127 1.336 . A
H107 C122 0.930 . S
H108 C123 0.930 . S
N109 C129 1.334 . A
N109 C130 1.328 . A
N110 C128 1.329 . A
N110 C131 1.331 . A
N111 C126 1.334 . A
N111 C127 1.334 . A
O112 C125 1.244 . A
O113 C125 1.257 . A
O114 C133 1.252 . A
O115 C133 1.252 . A
H116 C128 0.930 . S
H117 C129 0.930 . S
H118 C130 0.930 . S
O119 C132 1.244 . A
O120 C132 1.257 . A
C121 C122 1.391 . A
C121 N135 1.329 . A
C122 N134 1.334 . A
C123 C124 1.392 . A
C123 N134 1.329 . A
C124 N135 1.331 . A
C128 C129 1.391 . A
C130 C131 1.392 . A
Zn136 N137 2.020 . S
Zn136 N143 2.119 . S
Zn136 O148 1.975 . S
Zn136 O153 2.403 . S
Zn136 O154 2.019 . S
N137 N140 1.354 . A
N137 C160 1.336 . A
Zn138 N140 2.020 . S
Zn138 O146 2.403 . S
Zn138 O147 2.019 . S
Zn138 O149 1.975 . S
Zn138 N168 2.119 . S
H139 C155 0.930 . S
N140 C161 1.336 . A
H141 C156 0.930 . S
H142 C157 0.930 . S
N143 C163 1.334 . A
N143 C164 1.328 . A
N144 C162 1.329 . A
N144 C165 1.331 . A
N145 C160 1.334 . A
N145 C161 1.334 . A
O146 C159 1.244 . A
O147 C159 1.257 . A
O148 C167 1.252 . A
O149 C167 1.252 . A
H150 C162 0.930 . S
H151 C163 0.930 . S
H152 C164 0.930 . S
O153 C166 1.244 . A
O154 C166 1.257 . A
C155 C156 1.391 . A
C155 N169 1.329 . A
C156 N168 1.334 . A
C157 C158 1.392 . A
C157 N168 1.329 . A
C158 N169 1.331 . A
C162 C163 1.391 . A
C164 C165 1.392 . A
Zn170 N171 2.020 . S
Zn170 N177 2.119 . S
Zn170 O182 1.975 . S
Zn170 O187 2.403 . S
Zn170 O188 2.019 . S
N171 N174 1.354 . A
N171 C194 1.336 . A
Zn172 N174 2.020 . S
Zn172 O180 2.403 . S
Zn172 O181 2.019 . S
Zn172 O183 1.975 . S
Zn172 N202 2.119 . S
H173 C189 0.930 . S
N174 C195 1.336 . A
H175 C190 0.930 . S
H176 C191 0.930 . S
N177 C197 1.334 . A
N177 C198 1.328 . A
N178 C196 1.329 . A
N178 C199 1.331 . A
N179 C194 1.334 . A
N179 C195 1.334 . A
O180 C193 1.244 . A
O181 C193 1.257 . A
O182 C201 1.252 . A
O183 C201 1.252 . A
H184 C196 0.930 . S
H185 C197 0.930 . S
H186 C198 0.930 . S
O187 C200 1.244 . A
O188 C200 1.257 . A
C189 C190 1.391 . A
C189 N203 1.329 . A
C190 N202 1.334 . A
C191 C192 1.392 . A
C191 N202 1.329 . A
C192 N203 1.331 . A
C196 C197 1.391 . A
C198 C199 1.392 . A
Zn204 N205 2.020 . S
Zn204 N211 2.119 . S
Zn204 O216 1.975 . S
Zn204 O221 2.403 . S
Zn204 O222 2.019 . S
N205 N208 1.354 . A
N205 C228 1.336 . A
Zn206 N208 2.020 . S
Zn206 O214 2.403 . S
Zn206 O215 2.019 . S
Zn206 O217 1.975 . S
Zn206 N236 2.119 . S
H207 C223 0.930 . S
N208 C229 1.336 . A
H209 C224 0.930 . S
H210 C225 0.930 . S
N211 C231 1.334 . A
N211 C232 1.328 . A
N212 C230 1.329 . A
N212 C233 1.331 . A
N213 C228 1.334 . A
N213 C229 1.334 . A
O214 C227 1.244 . A
O215 C227 1.257 . A
O216 C235 1.252 . A
O217 C235 1.252 . A
H218 C230 0.930 . S
H219 C231 0.930 . S
H220 C232 0.930 . S
O221 C234 1.244 . A
O222 C234 1.257 . A
C223 C224 1.391 . A
C223 N237 1.329 . A
C224 N236 1.334 . A
C225 C226 1.392 . A
C225 N236 1.329 . A
C226 N237 1.331 . A
C230 C231 1.391 . A
C232 C233 1.392 . A
Zn238 N239 2.020 . S
Zn238 N245 2.119 . S
Zn238 O250 1.975 . S
Zn238 O255 2.403 . S
Zn238 O256 2.019 . S
N239 N242 1.354 . A
N239 C262 1.336 . A
Zn240 N242 2.020 . S
Zn240 O248 2.403 . S
Zn240 O249 2.019 . S
Zn240 O251 1.975 . S
Zn240 N270 2.119 . S
H241 C257 0.930 . S
N242 C263 1.336 . A
H243 C258 0.930 . S
H244 C259 0.930 . S
N245 C265 1.334 . A
N245 C266 1.328 . A
N246 C264 1.329 . A
N246 C267 1.331 . A
N247 C262 1.334 . A
N247 C263 1.334 . A
O248 C261 1.244 . A
O249 C261 1.257 . A
O250 C269 1.252 . A
O251 C269 1.252 . A
H252 C264 0.930 . S
H253 C265 0.930 . S
H254 C266 0.930 . S
O255 C268 1.244 . A
O256 C268 1.257 . A
C257 C258 1.391 . A
C257 N271 1.329 . A
C258 N270 1.334 . A
C259 C260 1.392 . A
C259 N270 1.329 . A
C260 N271 1.331 . A
C264 C265 1.391 . A
C266 C267 1.392 . A
Zn272 N273 2.020 . S
Zn272 N279 2.119 . S
Zn272 O284 1.975 . S
Zn272 O289 2.403 . S
Zn272 O290 2.019 . S
N273 N276 1.354 . A
N273 C296 1.336 . A
Zn274 N276 2.020 . S
Zn274 O282 2.403 . S
Zn274 O283 2.019 . S
Zn274 O285 1.975 . S
Zn274 N304 2.119 . S
H275 C291 0.930 . S
N276 C297 1.336 . A
H277 C292 0.930 . S
H278 C293 0.930 . S
N279 C299 1.334 . A
N279 C300 1.328 . A
N280 C298 1.329 . A
N280 C301 1.331 . A
N281 C296 1.334 . A
N281 C297 1.334 . A
O282 C295 1.244 . A
O283 C295 1.257 . A
O284 C303 1.252 . A
O285 C303 1.252 . A
H286 C298 0.930 . S
H287 C299 0.930 . S
H288 C300 0.930 . S
O289 C302 1.244 . A
O290 C302 1.257 . A
C291 C292 1.391 . A
C291 N305 1.329 . A
C292 N304 1.334 . A
C293 C294 1.392 . A
C293 N304 1.329 . A
C294 N305 1.331 . A
C298 C299 1.391 . A
C300 C301 1.392 . A
Zn306 N307 2.020 . S
Zn306 N313 2.119 . S
Zn306 O318 1.975 . S
Zn306 O323 2.403 . S
Zn306 O324 2.019 . S
N307 N310 1.354 . A
N307 C330 1.336 . A
Zn308 N310 2.020 . S
Zn308 O316 2.403 . S
Zn308 O317 2.019 . S
Zn308 O319 1.975 . S
Zn308 N338 2.119 . S
H309 C325 0.930 . S
N310 C331 1.336 . A
H311 C326 0.930 . S
H312 C327 0.930 . S
N313 C333 1.334 . A
N313 C334 1.328 . A
N314 C332 1.329 . A
N314 C335 1.331 . A
N315 C330 1.334 . A
N315 C331 1.334 . A
O316 C329 1.244 . A
O317 C329 1.257 . A
O318 C337 1.252 . A
O319 C337 1.252 . A
H320 C332 0.930 . S
H321 C333 0.930 . S
H322 C334 0.930 . S
O323 C336 1.244 . A
O324 C336 1.257 . A
C325 C326 1.391 . A
C325 N339 1.329 . A
C326 N338 1.334 . A
C327 C328 1.392 . A
C327 N338 1.329 . A
C328 N339 1.331 . A
C332 C333 1.391 . A
C334 C335 1.392 . A
Zn340 N341 2.020 . S
Zn340 N347 2.119 . S
Zn340 O352 1.975 . S
Zn340 O357 2.403 . S
Zn340 O358 2.019 . S
N341 N344 1.354 . A
N341 C364 1.336 . A
Zn342 N344 2.020 . S
Zn342 O350 2.403 . S
Zn342 O351 2.019 . S
Zn342 O353 1.975 . S
Zn342 N372 2.119 . S
H343 C359 0.930 . S
N344 C365 1.336 . A
H345 C360 0.930 . S
H346 C361 0.930 . S
N347 C367 1.334 . A
N347 C368 1.328 . A
N348 C366 1.329 . A
N348 C369 1.331 . A
N349 C364 1.334 . A
N349 C365 1.334 . A
O350 C363 1.244 . A
O351 C363 1.257 . A
O352 C371 1.252 . A
O353 C371 1.252 . A
H354 C366 0.930 . S
H355 C367 0.930 . S
H356 C368 0.930 . S
O357 C370 1.244 . A
O358 C370 1.257 . A
C359 C360 1.391 . A
C359 N373 1.329 . A
C360 N372 1.334 . A
C361 C362 1.392 . A
C361 N372 1.329 . A
C362 N373 1.331 . A
C366 C367 1.391 . A
C368 C369 1.392 . A
Zn374 N375 2.020 . S
Zn374 N381 2.119 . S
Zn374 O386 1.975 . S
Zn374 O391 2.403 . S
Zn374 O392 2.019 . S
N375 N378 1.354 . A
N375 C398 1.336 . A
Zn376 N378 2.020 . S
Zn376 O384 2.403 . S
Zn376 O385 2.019 . S
Zn376 O387 1.975 . S
Zn376 N406 2.119 . S
H377 C393 0.930 . S
N378 C399 1.336 . A
H379 C394 0.930 . S
H380 C395 0.930 . S
N381 C401 1.334 . A
N381 C402 1.328 . A
N382 C400 1.329 . A
N382 C403 1.331 . A
N383 C398 1.334 . A
N383 C399 1.334 . A
O384 C397 1.244 . A
O385 C397 1.257 . A
O386 C405 1.252 . A
O387 C405 1.252 . A
H388 C400 0.930 . S
H389 C401 0.930 . S
H390 C402 0.930 . S
O391 C404 1.244 . A
O392 C404 1.257 . A
C393 C394 1.391 . A
C393 N407 1.329 . A
C394 N406 1.334 . A
C395 C396 1.392 . A
C395 N406 1.329 . A
C396 N407 1.331 . A
C400 C401 1.391 . A
C402 C403 1.392 . A
Zn408 N409 2.020 . S
Zn408 N415 2.119 . S
Zn408 O420 1.975 . S
Zn408 O425 2.403 . S
Zn408 O426 2.019 . S
N409 N412 1.354 . A
N409 C432 1.336 . A
Zn410 N412 2.020 . S
Zn410 O418 2.403 . S
Zn410 O419 2.019 . S
Zn410 O421 1.975 . S
Zn410 N440 2.119 . S
H411 C427 0.930 . S
N412 C433 1.336 . A
H413 C428 0.930 . S
H414 C429 0.930 . S
N415 C435 1.334 . A
N415 C436 1.328 . A
N416 C434 1.329 . A
N416 C437 1.331 . A
N417 C432 1.334 . A
N417 C433 1.334 . A
O418 C431 1.244 . A
O419 C431 1.257 . A
O420 C439 1.252 . A
O421 C439 1.252 . A
H422 C434 0.930 . S
H423 C435 0.930 . S
H424 C436 0.930 . S
O425 C438 1.244 . A
O426 C438 1.257 . A
C427 C428 1.391 . A
C427 N441 1.329 . A
C428 N440 1.334 . A
C429 C430 1.392 . A
C429 N440 1.329 . A
C430 N441 1.331 . A
C434 C435 1.391 . A
C436 C437 1.392 . A
Zn442 N443 2.020 . S
Zn442 N449 2.119 . S
Zn442 O454 1.975 . S
Zn442 O459 2.403 . S
Zn442 O460 2.019 . S
N443 N446 1.354 . A
N443 C466 1.336 . A
Zn444 N446 2.020 . S
Zn444 O452 2.403 . S
Zn444 O453 2.019 . S
Zn444 O455 1.975 . S
Zn444 N474 2.119 . S
H445 C461 0.930 . S
N446 C467 1.336 . A
H447 C462 0.930 . S
H448 C463 0.930 . S
N449 C469 1.334 . A
N449 C470 1.328 . A
N450 C468 1.329 . A
N450 C471 1.331 . A
N451 C466 1.334 . A
N451 C467 1.334 . A
O452 C465 1.244 . A
O453 C465 1.257 . A
O454 C473 1.252 . A
O455 C473 1.252 . A
H456 C468 0.930 . S
H457 C469 0.930 . S
H458 C470 0.930 . S
O459 C472 1.244 . A
O460 C472 1.257 . A
C461 C462 1.391 . A
C461 N475 1.329 . A
C462 N474 1.334 . A
C463 C464 1.392 . A
C463 N474 1.329 . A
C464 N475 1.331 . A
C468 C469 1.391 . A
C470 C471 1.392 . A
Zn476 N477 2.020 . S
Zn476 N483 2.119 . S
Zn476 O488 1.975 . S
Zn476 O493 2.403 . S
Zn476 O494 2.019 . S
N477 N480 1.354 . A
N477 C500 1.336 . A
Zn478 N480 2.020 . S
Zn478 O486 2.403 . S
Zn478 O487 2.019 . S
Zn478 O489 1.975 . S
Zn478 N508 2.119 . S
H479 C495 0.930 . S
N480 C501 1.336 . A
H481 C496 0.930 . S
H482 C497 0.930 . S
N483 C503 1.334 . A
N483 C504 1.328 . A
N484 C502 1.329 . A
N484 C505 1.331 . A
N485 C500 1.334 . A
N485 C501 1.334 . A
O486 C499 1.244 . A
O487 C499 1.257 . A
O488 C507 1.252 . A
O489 C507 1.252 . A
H490 C502 0.930 . S
H491 C503 0.930 . S
H492 C504 0.930 . S
O493 C506 1.244 . A
O494 C506 1.257 . A
C495 C496 1.391 . A
C495 N509 1.329 . A
C496 N508 1.334 . A
C497 C498 1.392 . A
C497 N508 1.329 . A
C498 N509 1.331 . A
C502 C503 1.391 . A
C504 C505 1.392 . A
Zn510 N511 2.020 . S
Zn510 N517 2.119 . S
Zn510 O522 1.975 . S
Zn510 O527 2.403 . S
Zn510 O528 2.019 . S
N511 N514 1.354 . A
N511 C534 1.336 . A
Zn512 N514 2.020 . S
Zn512 O520 2.403 . S
Zn512 O521 2.019 . S
Zn512 O523 1.975 . S
Zn512 N542 2.119 . S
H513 C529 0.930 . S
N514 C535 1.336 . A
H515 C530 0.930 . S
H516 C531 0.930 . S
N517 C537 1.334 . A
N517 C538 1.328 . A
N518 C536 1.329 . A
N518 C539 1.331 . A
N519 C534 1.334 . A
N519 C535 1.334 . A
O520 C533 1.244 . A
O521 C533 1.257 . A
O522 C541 1.252 . A
O523 C541 1.252 . A
H524 C536 0.930 . S
H525 C537 0.930 . S
H526 C538 0.930 . S
O527 C540 1.244 . A
O528 C540 1.257 . A
C529 C530 1.391 . A
C529 N543 1.329 . A
C530 N542 1.334 . A
C531 C532 1.392 . A
C531 N542 1.329 . A
C532 N543 1.331 . A
C536 C537 1.391 . A
C538 C539 1.392 . A
C544 C545 1.442 . A
C544 C549 1.356 . A
C545 C546 1.332 . A
C545 H554 0.940 . S
C546 C547 1.421 . A
C546 H555 0.940 . S
C547 C548 1.401 . A
C547 C553 1.425 . A
C548 C549 1.430 . A
C548 C550 1.417 . A
C549 H556 0.940 . S
C550 C551 1.352 . A
C550 H557 0.939 . S
C551 C552 1.412 . A
C552 C553 1.367 . A
C552 H558 0.941 . S
C553 H559 0.940 . S
C560 C561 1.442 . A
C560 C565 1.356 . A
C561 C562 1.332 . A
C561 H570 0.940 . S
C562 C563 1.421 . A
C562 H571 0.940 . S
C563 C564 1.401 . A
C563 C569 1.425 . A
C564 C565 1.430 . A
C564 C566 1.417 . A
C565 H572 0.940 . S
C566 C567 1.352 . A
C566 H573 0.939 . S
C567 C568 1.412 . A
C568 C569 1.367 . A
C568 H574 0.941 . S
C569 H575 0.940 . S
C576 C577 1.442 . A
C576 C581 1.356 . A
C577 C578 1.332 . A
C577 H586 0.940 . S
C578 C579 1.421 . A
C578 H587 0.940 . S
C579 C580 1.401 . A
C579 C585 1.425 . A
C580 C581 1.430 . A
C580 C582 1.417 . A
C581 H588 0.940 . S
C582 C583 1.352 . A
C582 H589 0.939 . S
C583 C584 1.412 . A
C584 C585 1.367 . A
C584 H590 0.941 . S
C585 H591 0.940 . S
C592 C593 1.442 . A
C592 C597 1.356 . A
C593 C594 1.332 . A
C593 H602 0.940 . S
C594 C595 1.421 . A
C594 H603 0.940 . S
C595 C596 1.401 . A
C595 C601 1.425 . A
C596 C597 1.430 . A
C596 C598 1.417 . A
C597 H604 0.940 . S
C598 C599 1.352 . A
C598 H605 0.939 . S
C599 C600 1.412 . A
C600 C601 1.367 . A
C600 H606 0.941 . S
C601 H607 0.940 . S
C608 C609 1.442 . A
C608 C613 1.356 . A
C609 C610 1.332 . A
C609 H618 0.940 . S
C610 C611 1.421 . A
C610 H619 0.940 . S
C611 C612 1.401 . A
C611 C617 1.425 . A
C612 C613 1.430 . A
C612 C614 1.417 . A
C613 H620 0.940 . S
C614 C615 1.352 . A
C614 H621 0.939 . S
C615 C616 1.412 . A
C616 C617 1.367 . A
C616 H622 0.941 . S
C617 H623 0.940 . S
C624 C625 1.442 . A
C624 C629 1.356 . A
C625 C626 1.332 . A
C625 H634 0.940 . S
C626 C627 1.421 . A
C626 H635 0.940 . S
C627 C628 1.401 . A
C627 C633 1.425 . A
C628 C629 1.430 . A
C628 C630 1.417 . A
C629 H636 0.940 . S
C630 C631 1.352 . A
C630 H637 0.939 . S
C631 C632 1.412 . A
C632 C633 1.367 . A
C632 H638 0.941 . S
C633 H639 0.940 . S
C640 C641 1.442 . A
C640 C645 1.356 . A
C641 C642 1.332 . A
C641 H650 0.940 . S
C642 C643 1.421 . A
C642 H651 0.940 . S
C643 C644 1.401 . A
C643 C649 1.425 . A
C644 C645 1.430 . A
C644 C646 1.417 . A
C645 H652 0.940 . S
C646 C647 1.352 . A
C646 H653 0.939 . S
C647 C648 1.412 . A
C648 C649 1.367 . A
C648 H654 0.941 . S
C649 H655 0.940 . S
C656 C657 1.442 . A
C656 C661 1.356 . A
C657 C658 1.332 . A
C657 H666 0.940 . S
C658 C659 1.421 . A
C658 H667 0.940 . S
C659 C660 1.401 . A
C659 C665 1.425 . A
C660 C661 1.430 . A
C660 C662 1.417 . A
C661 H668 0.940 . S
C662 C663 1.352 . A
C662 H669 0.939 . S
C663 C664 1.412 . A
C664 C665 1.367 . A
C664 H670 0.941 . S
C665 H671 0.940 . S
C672 C673 1.442 . A
C672 C677 1.356 . A
C673 C674 1.332 . A
C673 H682 0.940 . S
C674 C675 1.421 . A
C674 H683 0.940 . S
C675 C676 1.401 . A
C675 C681 1.425 1_545 A
C676 C677 1.430 . A
C676 C678 1.417 1_545 A
C677 H684 0.940 . S
C678 C679 1.352 . A
C678 H685 0.939 . S
C679 C680 1.412 . A
C680 C681 1.367 . A
C680 H686 0.941 . S
C681 H687 0.940 . S
C688 C689 1.442 . A
C688 C693 1.356 . A
C689 C690 1.332 . A
C689 H698 0.940 . S
C690 C691 1.421 . A
C690 H699 0.940 . S
C691 C692 1.401 . A
C691 C697 1.425 1_455 A
C692 C693 1.430 . A
C692 C694 1.417 1_455 A
C693 H700 0.940 . S
C694 C695 1.352 . A
C694 H701 0.939 . S
C695 C696 1.412 . A
C696 C697 1.367 . A
C696 H702 0.941 . S
C697 H703 0.940 . S
C704 C705 1.442 . A
C704 C709 1.356 . A
C705 C706 1.332 . A
C705 H714 0.940 . S
C706 C707 1.421 1_565 A
C706 H715 0.940 . S
C707 C708 1.401 1_545 A
C707 C713 1.425 . A
C708 C709 1.430 . A
C708 C710 1.417 1_565 A
C709 H716 0.940 . S
C710 C711 1.352 . A
C710 H717 0.939 . S
C711 C712 1.412 . A
C712 C713 1.367 . A
C712 H718 0.941 . S
C713 H719 0.940 . S
C720 C721 1.442 . A
C720 C725 1.356 . A
C721 C722 1.332 . A
C721 H730 0.940 . S
C722 C723 1.421 . A
C722 H731 0.940 . S
C723 C724 1.401 . A
C723 C729 1.425 1_655 A
C724 C725 1.430 . A
C724 C726 1.417 1_655 A
C725 H732 0.940 . S
C726 C727 1.352 . A
C726 H733 0.939 . S
C727 C728 1.412 . A
C728 C729 1.367 . A
C728 H734 0.941 . S
C729 H735 0.940 . S
C736 C737 1.442 . A
C736 C741 1.356 . A
C737 C738 1.332 . A
C737 H746 0.940 . S
C738 C739 1.421 1_545 A
C738 H747 0.940 . S
C739 C740 1.401 1_565 A
C739 C745 1.425 . A
C740 C741 1.430 . A
C740 C742 1.417 1_545 A
C741 H748 0.940 . S
C742 C743 1.352 . A
C742 H749 0.939 . S
C743 C744 1.412 . A
C744 C745 1.367 . A
C744 H750 0.941 . S
C745 H751 0.940 . S
C752 C753 1.442 . A
C752 C757 1.356 . A
C753 C754 1.332 . A
C753 H762 0.940 . S
C754 C755 1.387 1_655 A
C754 H763 0.940 . S
C755 C756 1.398 1_455 A
C755 C761 1.464 . A
C756 C757 1.430 . A
C756 C758 1.417 1_655 A
C757 H764 0.940 . S
C758 C759 1.352 . A
C758 H765 0.939 . S
C759 C760 1.412 . A
C760 C761 1.367 . A
C760 H766 0.941 . S
C761 H767 0.940 . S
C768 C769 1.442 . A
C768 C773 1.356 . A
C769 C770 1.332 . A
C769 H778 0.940 . S
C770 C771 1.421 . A
C770 H779 0.940 . S
C771 C772 1.401 . A
C771 C777 1.425 1_556 A
C772 C773 1.430 . A
C772 C774 1.417 1_556 A
C773 H780 0.940 . S
C774 C775 1.352 . A
C774 H781 0.939 . S
C775 C776 1.412 . A
C776 C777 1.367 . A
C776 H782 0.941 . S
C777 H783 0.940 . S
C784 C785 1.442 . A
C784 C789 1.356 . A
C785 C786 1.332 . A
C785 H794 0.940 . S
C786 C787 1.421 . A
C786 H795 0.940 . S
C787 C788 1.401 . A
C787 C793 1.425 1_554 A
C788 C789 1.430 . A
C788 C790 1.417 1_554 A
C789 H796 0.940 . S
C790 C791 1.352 . A
C790 H797 0.939 . S
C791 C792 1.412 . A
C792 C793 1.367 . A
C792 H798 0.941 . S
C793 H799 0.940 . S
C800 C801 1.442 . A
C800 C805 1.356 . A
C801 C802 1.332 . A
C801 H810 0.940 . S
C802 C803 1.421 1_556 A
C802 H811 0.940 . S
C803 C804 1.401 1_554 A
C803 C809 1.425 . A
C804 C805 1.430 . A
C804 C806 1.417 1_556 A
C805 H812 0.940 . S
C806 C807 1.352 . A
C806 H813 0.939 . S
C807 C808 1.412 . A
C808 C809 1.367 . A
C808 H814 0.941 . S
C809 H815 0.940 . S
C816 C817 1.442 . A
C816 C821 1.356 . A
C817 C818 1.332 . A
C817 H826 0.940 . S
C818 C819 1.421 1_556 A
C818 H827 0.940 . S
C819 C820 1.401 1_554 A
C819 C825 1.425 . A
C820 C821 1.430 . A
C820 C822 1.417 1_556 A
C821 H828 0.940 . S
C822 C823 1.352 . A
C822 H829 0.939 . S
C823 C824 1.412 . A
C824 C825 1.367 . A
C824 H830 0.941 . S
C825 H831 0.940 . S
C832 C833 1.442 . A
C832 C837 1.356 . A
C833 C834 1.332 . A
C833 H842 0.940 . S
C834 C835 1.421 . A
C834 H843 0.940 . S
C835 C836 1.401 . A
C835 C841 1.425 . A
C836 C837 1.430 . A
C836 C838 1.417 . A
C837 H844 0.940 . S
C838 C839 1.352 . A
C838 H845 0.939 . S
C839 C840 1.412 . A
C840 C841 1.367 . A
C840 H846 0.941 . S
C841 H847 0.940 . S
C848 C849 1.442 . A
C848 C853 1.356 . A
C849 C850 1.332 . A
C849 H858 0.940 . S
C850 C851 1.421 . A
C850 H859 0.940 . S
C851 C852 1.401 . A
C851 C857 1.425 . A
C852 C853 1.430 . A
C852 C854 1.417 . A
C853 H860 0.940 . S
C854 C855 1.352 . A
C854 H861 0.939 . S
C855 C856 1.412 . A
C856 C857 1.367 . A
C856 H862 0.941 . S
C857 H863 0.940 . S
C864 C865 1.442 . A
C864 C869 1.356 . A
C865 C866 1.332 . A
C865 H874 0.940 . S
C866 C867 1.421 . A
C866 H875 0.940 . S
C867 C868 1.401 . A
C867 C873 1.425 . A
C868 C869 1.430 . A
C868 C870 1.417 . A
C869 H876 0.940 . S
C870 C871 1.352 . A
C870 H877 0.939 . S
C871 C872 1.412 . A
C872 C873 1.367 . A
C872 H878 0.941 . S
C873 H879 0.940 . S
C880 C881 1.442 . A
C880 C885 1.356 . A
C881 C882 1.332 . A
C881 H890 0.940 . S
C882 C883 1.421 . A
C882 H891 0.940 . S
C883 C884 1.401 . A
C883 C889 1.425 . A
C884 C885 1.430 . A
C884 C886 1.417 . A
C885 H892 0.940 . S
C886 C887 1.352 . A
C886 H893 0.939 . S
C887 C888 1.412 . A
C888 C889 1.367 . A
C888 H894 0.941 . S
C889 H895 0.940 . S
C896 C897 1.442 . A
C896 C901 1.356 . A
C897 C898 1.332 . A
C897 H906 0.940 . S
C898 C899 1.421 . A
C898 H907 0.940 . S
C899 C900 1.401 . A
C899 C905 1.425 . A
C900 C901 1.430 . A
C900 C902 1.417 . A
C901 H908 0.940 . S
C902 C903 1.352 . A
C902 H909 0.939 . S
C903 C904 1.412 . A
C904 C905 1.367 . A
C904 H910 0.941 . S
C905 H911 0.940 . S
C912 C913 1.442 . A
C912 C917 1.356 . A
C913 C914 1.332 . A
C913 H922 0.940 . S
C914 C915 1.421 . A
C914 H923 0.940 . S
C915 C916 1.401 . A
C915 C921 1.425 . A
C916 C917 1.430 . A
C916 C918 1.417 . A
C917 H924 0.940 . S
C918 C919 1.352 . A
C918 H925 0.939 . S
C919 C920 1.412 . A
C920 C921 1.367 . A
C920 H926 0.941 . S
C921 H927 0.940 . S
C928 C929 1.442 . A
C928 C933 1.356 . A
C929 C930 1.332 . A
C929 H938 0.940 . S
C930 C931 1.421 . A
C930 H939 0.940 . S
C931 C932 1.401 . A
C931 C937 1.425 . A
C932 C933 1.430 . A
C932 C934 1.417 . A
C933 H940 0.940 . S
C934 C935 1.352 . A
C934 H941 0.939 . S
C935 C936 1.412 . A
C936 C937 1.367 . A
C936 H942 0.941 . S
C937 H943 0.940 . S
C944 C945 1.442 . A
C944 C949 1.356 . A
C945 C946 1.332 . A
C945 H954 0.940 . S
C946 C947 1.421 . A
C946 H955 0.940 . S
C947 C948 1.401 . A
C947 C953 1.425 . A
C948 C949 1.430 . A
C948 C950 1.417 . A
C949 H956 0.940 . S
C950 C951 1.352 . A
C950 H957 0.939 . S
C951 C952 1.412 . A
C952 C953 1.367 . A
C952 H958 0.941 . S
C953 H959 0.940 . S
C960 C961 1.442 . A
C960 C965 1.356 . A
C961 C962 1.332 . A
C961 H970 0.940 . S
C962 C963 1.421 . A
C962 H971 0.940 . S
C963 C964 1.401 . A
C963 C969 1.425 . A
C964 C965 1.430 . A
C964 C966 1.417 . A
C965 H972 0.940 . S
C966 C967 1.352 . A
C966 H973 0.939 . S
C967 C968 1.412 . A
C968 C969 1.367 . A
C968 H974 0.941 . S
C969 H975 0.940 . S
C976 C977 1.442 . A
C976 C981 1.356 . A
C977 C978 1.332 . A
C977 H986 0.940 . S
C978 C979 1.421 . A
C978 H987 0.940 . S
C979 C980 1.401 . A
C979 C985 1.425 . A
C980 C981 1.430 . A
C980 C982 1.417 . A
C981 H988 0.940 . S
C982 C983 1.352 . A
C982 H989 0.939 . S
C983 C984 1.412 . A
C984 C985 1.367 . A
C984 H990 0.941 . S
C985 H991 0.940 . S
C992 C993 1.442 . A
C992 C997 1.356 . A
C993 C994 1.332 . A
C993 H1002 0.940 . S
C994 C995 1.421 . A
C994 H1003 0.940 . S
C995 C996 1.401 . A
C995 C1001 1.425 . A
C996 C997 1.430 . A
C996 C998 1.417 . A
C997 H1004 0.940 . S
C998 C999 1.352 . A
C998 H1005 0.939 . S
C999 C1000 1.412 . A
C1000 C1001 1.367 . A
C1000 H1006 0.941 . S
C1001 H1007 0.940 . S
C1008 C1009 1.442 . A
C1008 C1013 1.356 . A
C1009 C1010 1.332 . A
C1009 H1018 0.940 . S
C1010 C1011 1.421 . A
C1010 H1019 0.940 . S
C1011 C1012 1.401 . A
C1011 C1017 1.425 . A
C1012 C1013 1.430 . A
C1012 C1014 1.417 . A
C1013 H1020 0.940 . S
C1014 C1015 1.352 . A
C1014 H1021 0.939 . S
C1015 C1016 1.412 . A
C1016 C1017 1.367 . A
C1016 H1022 0.941 . S
C1017 H1023 0.940 . S
C1024 C1025 1.442 . A
C1024 C1029 1.356 . A
C1025 C1026 1.332 . A
C1025 H1034 0.940 . S
C1026 C1027 1.421 . A
C1026 H1035 0.940 . S
C1027 C1028 1.401 . A
C1027 C1033 1.425 1_545 A
C1028 C1029 1.430 . A
C1028 C1030 1.417 1_545 A
C1029 H1036 0.940 . S
C1030 C1031 1.352 . A
C1030 H1037 0.939 . S
C1031 C1032 1.412 . A
C1032 C1033 1.367 . A
C1032 H1038 0.941 . S
C1033 H1039 0.940 . S
C1040 C1041 1.442 . A
C1040 C1045 1.356 . A
C1041 C1042 1.332 . A
C1041 H1050 0.940 . S
C1042 C1043 1.458 . A
C1042 H1051 0.940 . S
C1043 C1044 1.404 . A
C1043 C1049 1.387 1_655 A
C1044 C1045 1.430 . A
C1044 C1046 1.417 1_655 A
C1045 H1052 0.940 . S
C1046 C1047 1.352 . A
C1046 H1053 0.939 . S
C1047 C1048 1.412 . A
C1048 C1049 1.367 . A
C1048 H1054 0.941 . S
C1049 H1055 0.940 . S
C544 C500 1.160 . S
C551 C24 1.356 . S
C560 C534 0.998 . S
C567 C58 1.278 . S
C576 C92 1.242 . S
C583 C296 1.388 . S
C592 C126 1.137 . S
C599 C330 1.262 . S
C608 C364 1.399 . S
C615 C160 1.439 . S
C624 C194 1.253 . S
C631 C398 1.392 . S
C640 C432 1.281 . S
C647 C228 1.311 . S
C656 C262 1.411 . S
C663 C466 1.372 . S
C672 C29 1.460 . S
C679 C193 1.845 . S
C688 C167 1.298 . S
C695 C65 1.380 . S
C704 C97 1.658 . S
C711 C57 1.804 . S
C720 C99 1.265 . S
C727 C133 1.375 . S
C736 C165 1.552 . S
C743 C125 1.778 . S
C752 C201 1.229 . S
C759 C235 1.394 . S
C768 C227 1.572 . S
C775 C131 1.679 . S
C784 C63 1.460 . S
C791 C23 1.845 . S
C800 C199 1.537 . S
C807 C91 1.780 . S
C816 C267 1.525 . S
C823 C159 1.782 . S
C832 C397 1.772 . S
C839 C301 1.559 . S
C848 C329 1.580 . S
C855 C437 1.648 . S
C864 C369 1.466 . S
C871 C465 1.844 . S
C880 C405 1.295 . S
C887 C439 1.382 . S
C896 C431 1.571 . S
C903 C471 1.678 . S
C912 C473 1.236 . S
C919 C507 1.388 . S
C928 C403 1.454 . S
C935 C499 1.846 . S
C944 C541 1.256 . S
C951 C371 1.397 . S
C960 C539 1.560 . S
C967 C295 1.778 . S
C976 C337 1.242 . S
C983 C303 1.399 . S
C992 C363 1.585 . S
C999 C335 1.638 . S
C1008 C505 1.539 . S
C1015 C533 1.833 . S
C1024 C261 1.588 . S
C1031 C233 1.634 . S
C1040 C31 1.297 . S
C1047 C269 1.381 . S
