# Generated by pormake.
# Topology pcb, (4)-cn, num edge types: 1
# Building blocks:
#     Node 0, Type 0, BuildingBlock: N164, # of connection points: 4
#     Node 1, Type 0, BuildingBlock: N164, # of connection points: 4
#     Node 2, Type 0, BuildingBlock: N164, # of connection points: 4
#     Node 3, Type 0, BuildingBlock: N164, # of connection points: 4
#     Node 4, Type 0, BuildingBlock: N164, # of connection points: 4
#     Node 5, Type 0, BuildingBlock: N164, # of connection points: 4
#     Node 6, Type 0, BuildingBlock: N164, # of connection points: 4
#     Node 7, Type 0, BuildingBlock: N164, # of connection points: 4
#     Node 8, Type 0, BuildingBlock: N164, # of connection points: 4
#     Node 9, Type 0, BuildingBlock: N164, # of connection points: 4
#     Node 10, Type 0, BuildingBlock: N164, # of connection points: 4
#     Node 11, Type 0, BuildingBlock: N164, # of connection points: 4
#     Node 12, Type 0, BuildingBlock: N164, # of connection points: 4
#     Node 13, Type 0, BuildingBlock: N164, # of connection points: 4
#     Node 14, Type 0, BuildingBlock: N164, # of connection points: 4
#     Node 15, Type 0, BuildingBlock: N164, # of connection points: 4
#     Edge 16, Type (0, 0), BuildingBlock: E171, # of connection points: 2
#     Edge 17, Type (0, 0), BuildingBlock: E171, # of connection points: 2
#     Edge 18, Type (0, 0), BuildingBlock: E171, # of connection points: 2
#     Edge 19, Type (0, 0), BuildingBlock: E171, # of connection points: 2
#     Edge 20, Type (0, 0), BuildingBlock: E171, # of connection points: 2
#     Edge 21, Type (0, 0), BuildingBlock: E171, # of connection points: 2
#     Edge 22, Type (0, 0), BuildingBlock: E171, # of connection points: 2
#     Edge 23, Type (0, 0), BuildingBlock: E171, # of connection points: 2
#     Edge 24, Type (0, 0), BuildingBlock: E171, # of connection points: 2
#     Edge 25, Type (0, 0), BuildingBlock: E171, # of connection points: 2
#     Edge 26, Type (0, 0), BuildingBlock: E171, # of connection points: 2
#     Edge 27, Type (0, 0), BuildingBlock: E171, # of connection points: 2
#     Edge 28, Type (0, 0), BuildingBlock: E171, # of connection points: 2
#     Edge 29, Type (0, 0), BuildingBlock: E171, # of connection points: 2
#     Edge 30, Type (0, 0), BuildingBlock: E171, # of connection points: 2
#     Edge 31, Type (0, 0), BuildingBlock: E171, # of connection points: 2
#     Edge 32, Type (0, 0), BuildingBlock: E171, # of connection points: 2
#     Edge 33, Type (0, 0), BuildingBlock: E171, # of connection points: 2
#     Edge 34, Type (0, 0), BuildingBlock: E171, # of connection points: 2
#     Edge 35, Type (0, 0), BuildingBlock: E171, # of connection points: 2
#     Edge 36, Type (0, 0), BuildingBlock: E171, # of connection points: 2
#     Edge 37, Type (0, 0), BuildingBlock: E171, # of connection points: 2
#     Edge 38, Type (0, 0), BuildingBlock: E171, # of connection points: 2
#     Edge 39, Type (0, 0), BuildingBlock: E171, # of connection points: 2
#     Edge 40, Type (0, 0), BuildingBlock: E171, # of connection points: 2
#     Edge 41, Type (0, 0), BuildingBlock: E171, # of connection points: 2
#     Edge 42, Type (0, 0), BuildingBlock: E171, # of connection points: 2
#     Edge 43, Type (0, 0), BuildingBlock: E171, # of connection points: 2
#     Edge 44, Type (0, 0), BuildingBlock: E171, # of connection points: 2
#     Edge 45, Type (0, 0), BuildingBlock: E171, # of connection points: 2
#     Edge 46, Type (0, 0), BuildingBlock: E171, # of connection points: 2
#     Edge 47, Type (0, 0), BuildingBlock: E171, # of connection points: 2
# Relax obj value: 0.409
# Max RMSD: 0.229
# Mean RMSD: 0.229
data_pcb+N164+E171
_symmetry_space_group_name_H-M    P1
_symmetry_Int_Tables_number       1
_symmetry_cell_setting            triclinic
loop_
_symmetry_equiv_pos_as_xyz
'x, y, z'
_cell_length_a     25.585
_cell_length_b     36.199
_cell_length_c     36.199
_cell_angle_alpha  90.000
_cell_angle_beta   89.998
_cell_angle_gamma  89.998
loop_
_atom_site_label
_atom_site_type_symbol
_atom_site_fract_x
_atom_site_fract_y
_atom_site_fract_z
_atom_type_partial_charge
O0 O 0.78713 0.14774 0.77415 0.00000
O1 O 0.72992 0.17585 0.80852 0.00000
O2 O 0.75043 0.16138 0.88694 0.00000
O3 O 0.80486 0.11562 0.89168 0.00000
In4 In 0.78522 0.13485 0.83470 0.00000
C5 C 0.88071 0.16280 0.83769 0.00000
O6 O 0.78344 0.07463 0.82029 0.00000
O7 O 0.71070 0.10021 0.83807 0.00000
C8 C 0.75245 0.17165 0.77784 0.00000
O9 O 0.87822 0.12879 0.82942 0.00000
O10 O 0.83935 0.18109 0.84106 0.00000
C11 C 0.77641 0.13963 0.90627 0.00000
C12 C 0.73635 0.07198 0.82921 0.00000
O13 O 0.78719 0.22583 0.14781 0.00000
O14 O 0.73001 0.19145 0.17594 0.00000
O15 O 0.75054 0.11303 0.16147 0.00000
O16 O 0.80494 0.10830 0.11569 0.00000
In17 In 0.78530 0.16527 0.13492 0.00000
C18 C 0.88080 0.16230 0.16284 0.00000
O19 O 0.78347 0.17968 0.07470 0.00000
O20 O 0.71075 0.16189 0.10031 0.00000
C21 C 0.75253 0.22214 0.17174 0.00000
O22 O 0.87828 0.17057 0.12883 0.00000
O23 O 0.83945 0.15892 0.18115 0.00000
C24 C 0.77651 0.09371 0.13971 0.00000
C25 C 0.73638 0.17076 0.07207 0.00000
O26 O 0.78740 0.85217 0.22590 0.00000
O27 O 0.73021 0.82404 0.19154 0.00000
O28 O 0.75069 0.83852 0.11311 0.00000
O29 O 0.80509 0.88429 0.10837 0.00000
In30 In 0.78548 0.86506 0.16534 0.00000
C31 C 0.88099 0.83714 0.16235 0.00000
O32 O 0.78365 0.92528 0.17975 0.00000
O33 O 0.71092 0.89967 0.16199 0.00000
C34 C 0.75274 0.82824 0.22222 0.00000
O35 O 0.87847 0.87116 0.17062 0.00000
O36 O 0.83964 0.81883 0.15898 0.00000
C37 C 0.77665 0.86027 0.09378 0.00000
C38 C 0.73656 0.92791 0.17085 0.00000
O39 O 0.21290 0.77418 0.14776 0.00000
O40 O 0.27009 0.80855 0.17587 0.00000
O41 O 0.24956 0.88698 0.16140 0.00000
O42 O 0.19514 0.89170 0.11564 0.00000
In43 In 0.21479 0.83473 0.13487 0.00000
C44 C 0.11929 0.83770 0.16281 0.00000
O45 O 0.21659 0.82032 0.07465 0.00000
O46 O 0.28932 0.83811 0.10023 0.00000
C47 C 0.24757 0.77787 0.17167 0.00000
O48 O 0.12180 0.82944 0.12880 0.00000
O49 O 0.16065 0.84109 0.18111 0.00000
C50 C 0.22358 0.90630 0.13965 0.00000
C51 C 0.26368 0.82924 0.07201 0.00000
O52 O 0.21269 0.14783 0.22584 0.00000
O53 O 0.26986 0.17596 0.19147 0.00000
O54 O 0.24935 0.16148 0.11304 0.00000
O55 O 0.19496 0.11570 0.10831 0.00000
In56 In 0.21459 0.13493 0.16529 0.00000
C57 C 0.11908 0.16285 0.16231 0.00000
O58 O 0.21643 0.07471 0.17969 0.00000
O59 O 0.28915 0.10032 0.16191 0.00000
C60 C 0.24735 0.17175 0.22215 0.00000
O61 O 0.12160 0.12884 0.17058 0.00000
O62 O 0.16043 0.18116 0.15893 0.00000
C63 C 0.22339 0.13972 0.09372 0.00000
C64 C 0.26352 0.07209 0.17077 0.00000
O65 O 0.78735 0.77408 0.85224 0.00000
O66 O 0.73013 0.80844 0.82413 0.00000
O67 O 0.75060 0.88687 0.83860 0.00000
O68 O 0.80502 0.89162 0.88436 0.00000
In69 In 0.78542 0.83464 0.86513 0.00000
C70 C 0.88090 0.83764 0.83718 0.00000
O71 O 0.78363 0.82023 0.92535 0.00000
O72 O 0.71089 0.83799 0.89977 0.00000
C73 C 0.75267 0.77776 0.82833 0.00000
O74 O 0.87841 0.82938 0.87119 0.00000
O75 O 0.83954 0.84101 0.81889 0.00000
C76 C 0.77656 0.90620 0.86035 0.00000
C77 C 0.73654 0.82913 0.92800 0.00000
O78 O 0.21278 0.85226 0.77410 0.00000
O79 O 0.27000 0.82415 0.80845 0.00000
O80 O 0.24952 0.83862 0.88689 0.00000
O81 O 0.19509 0.88438 0.89163 0.00000
In82 In 0.21471 0.86515 0.83466 0.00000
C83 C 0.11922 0.83720 0.83766 0.00000
O84 O 0.21648 0.92537 0.82025 0.00000
O85 O 0.28923 0.89979 0.83801 0.00000
C86 C 0.24746 0.82835 0.77778 0.00000
O87 O 0.12171 0.87121 0.82939 0.00000
O88 O 0.16059 0.81890 0.84103 0.00000
C89 C 0.22355 0.86037 0.90622 0.00000
C90 C 0.26357 0.92802 0.82915 0.00000
O91 O 0.21258 0.22592 0.85219 0.00000
O92 O 0.26979 0.19157 0.82407 0.00000
O93 O 0.24933 0.11314 0.83855 0.00000
O94 O 0.19492 0.10839 0.88432 0.00000
In95 In 0.21452 0.16537 0.86508 0.00000
C96 C 0.11902 0.16236 0.83716 0.00000
O97 O 0.21633 0.17978 0.92530 0.00000
O98 O 0.28907 0.16202 0.89971 0.00000
C99 C 0.24725 0.22224 0.82827 0.00000
O100 O 0.12153 0.17063 0.87117 0.00000
O101 O 0.16038 0.15899 0.81885 0.00000
C102 C 0.22337 0.09380 0.86030 0.00000
C103 C 0.26342 0.17087 0.92794 0.00000
O104 O 0.71288 0.72583 0.35224 0.00000
O105 O 0.77008 0.69146 0.32413 0.00000
O106 O 0.74956 0.61304 0.33860 0.00000
O107 O 0.69514 0.60830 0.38436 0.00000
In108 In 0.71478 0.66528 0.36513 0.00000
C109 C 0.61929 0.66230 0.33719 0.00000
O110 O 0.71658 0.67969 0.42535 0.00000
O111 O 0.78931 0.66190 0.39977 0.00000
C112 C 0.74756 0.72214 0.32833 0.00000
O113 O 0.62179 0.67057 0.37120 0.00000
O114 O 0.66065 0.65892 0.31889 0.00000
C115 C 0.72359 0.59371 0.36035 0.00000
C116 C 0.76366 0.67077 0.42800 0.00000
O117 O 0.28742 0.64782 0.27410 0.00000
O118 O 0.23022 0.67595 0.30846 0.00000
O119 O 0.25069 0.66147 0.38689 0.00000
O120 O 0.30509 0.61569 0.39163 0.00000
In121 In 0.28549 0.63493 0.33465 0.00000
C122 C 0.38099 0.66285 0.33765 0.00000
O123 O 0.28367 0.57471 0.32024 0.00000
O124 O 0.21094 0.60031 0.33801 0.00000
C125 C 0.25276 0.67174 0.27778 0.00000
O126 O 0.37848 0.62884 0.32938 0.00000
O127 O 0.33964 0.68116 0.34102 0.00000
C128 C 0.27665 0.63971 0.40622 0.00000
C129 C 0.23657 0.57208 0.32915 0.00000
O130 O 0.28724 0.27417 0.35219 0.00000
O131 O 0.23006 0.30855 0.32406 0.00000
O132 O 0.25059 0.38698 0.33854 0.00000
O133 O 0.30498 0.39170 0.38431 0.00000
In134 In 0.28534 0.33473 0.36508 0.00000
C135 C 0.38085 0.33770 0.33716 0.00000
O136 O 0.28351 0.32033 0.42530 0.00000
O137 O 0.21079 0.33811 0.39970 0.00000
C138 C 0.25258 0.27787 0.32827 0.00000
O139 O 0.37833 0.32943 0.37117 0.00000
O140 O 0.33950 0.34108 0.31885 0.00000
C141 C 0.27655 0.40630 0.36029 0.00000
C142 C 0.23642 0.32925 0.42793 0.00000
O143 O 0.71272 0.64775 0.72590 0.00000
O144 O 0.76994 0.67585 0.69155 0.00000
O145 O 0.74946 0.66138 0.61312 0.00000
O146 O 0.69503 0.61562 0.60837 0.00000
In147 In 0.71465 0.63485 0.66535 0.00000
C148 C 0.61916 0.66281 0.66235 0.00000
O149 O 0.71642 0.57463 0.67976 0.00000
O150 O 0.78917 0.60021 0.66199 0.00000
C151 C 0.74740 0.67166 0.72222 0.00000
O152 O 0.62165 0.62880 0.67061 0.00000
O153 O 0.66053 0.68110 0.65898 0.00000
C154 C 0.72349 0.63963 0.59378 0.00000
C155 C 0.76351 0.57198 0.67085 0.00000
O156 O 0.28729 0.72592 0.64776 0.00000
O157 O 0.23007 0.69157 0.67587 0.00000
O158 O 0.25054 0.61313 0.66140 0.00000
O159 O 0.30496 0.60838 0.61564 0.00000
In160 In 0.28536 0.66536 0.63487 0.00000
C161 C 0.38084 0.66235 0.66281 0.00000
O162 O 0.28358 0.67977 0.57465 0.00000
O163 O 0.21083 0.66202 0.60023 0.00000
C164 C 0.25261 0.72224 0.67167 0.00000
O165 O 0.37835 0.67062 0.62880 0.00000
O166 O 0.33948 0.65898 0.68111 0.00000
C167 C 0.27650 0.59380 0.63965 0.00000
C168 C 0.23649 0.67087 0.57200 0.00000
O169 O 0.28711 0.35226 0.72584 0.00000
O170 O 0.22991 0.32415 0.69147 0.00000
O171 O 0.25042 0.33862 0.61305 0.00000
O172 O 0.30485 0.38438 0.60831 0.00000
In173 In 0.28521 0.36515 0.66529 0.00000
C174 C 0.38070 0.33720 0.66231 0.00000
O175 O 0.28342 0.42537 0.67970 0.00000
O176 O 0.21068 0.39979 0.66192 0.00000
C177 C 0.25243 0.32835 0.72215 0.00000
O178 O 0.37820 0.37121 0.67057 0.00000
O179 O 0.33934 0.31890 0.65893 0.00000
C180 C 0.27640 0.36037 0.59372 0.00000
C181 C 0.23633 0.42801 0.67078 0.00000
O182 O 0.71258 0.27408 0.64781 0.00000
O183 O 0.76978 0.30844 0.67594 0.00000
O184 O 0.74931 0.38687 0.66146 0.00000
O185 O 0.69491 0.39162 0.61569 0.00000
In186 In 0.71452 0.33464 0.63492 0.00000
C187 C 0.61901 0.33764 0.66285 0.00000
O188 O 0.71633 0.32023 0.57470 0.00000
O189 O 0.78906 0.33799 0.60030 0.00000
C190 C 0.74725 0.27776 0.67174 0.00000
O191 O 0.62152 0.32937 0.62884 0.00000
O192 O 0.66036 0.34101 0.68115 0.00000
C193 C 0.72336 0.40620 0.63971 0.00000
C194 C 0.76343 0.32913 0.57207 0.00000
O195 O 0.71274 0.35217 0.27415 0.00000
O196 O 0.76992 0.32404 0.30853 0.00000
O197 O 0.74940 0.33851 0.38695 0.00000
O198 O 0.69501 0.38429 0.39168 0.00000
In199 In 0.71464 0.36506 0.33471 0.00000
C200 C 0.61913 0.33715 0.33769 0.00000
O201 O 0.71648 0.42528 0.32030 0.00000
O202 O 0.78920 0.39967 0.33809 0.00000
C203 C 0.74740 0.32824 0.27784 0.00000
O204 O 0.62166 0.37116 0.32942 0.00000
O205 O 0.66048 0.31884 0.34107 0.00000
C206 C 0.72344 0.36027 0.40628 0.00000
C207 C 0.76357 0.42791 0.32922 0.00000
O208 O 0.63623 0.16906 0.75309 0.00000
O209 O 0.61573 0.22891 0.75759 0.00000
H210 H 0.82527 0.19406 0.74335 0.00000
H211 H 0.67441 0.25208 0.70295 0.00000
C212 C 0.70481 0.24051 0.71098 0.00000
C213 C 0.75256 0.25050 0.69504 0.00000
C214 C 0.79835 0.23228 0.70795 0.00000
O215 O 0.86345 0.27708 0.69322 0.00000
C216 C 0.85076 0.24423 0.69540 0.00000
O217 O 0.88395 0.21724 0.68872 0.00000
C218 C 0.79487 0.20563 0.73532 0.00000
C219 C 0.74712 0.19564 0.75127 0.00000
C220 C 0.70133 0.21386 0.73835 0.00000
C221 C 0.64892 0.20191 0.75091 0.00000
O222 O 0.82628 0.19156 0.21405 0.00000
O223 O 0.88219 0.23884 0.21793 0.00000
H224 H 0.67599 0.27239 0.18658 0.00000
H225 H 0.82394 0.28126 0.25974 0.00000
C226 C 0.79415 0.27959 0.24511 0.00000
C227 C 0.75294 0.30421 0.25130 0.00000
C228 C 0.70793 0.30093 0.22843 0.00000
O229 O 0.67365 0.36208 0.23226 0.00000
C230 C 0.66531 0.32851 0.23056 0.00000
O231 O 0.61773 0.31481 0.22839 0.00000
C232 C 0.70577 0.27406 0.20121 0.00000
C233 C 0.74698 0.24943 0.19502 0.00000
C234 C 0.79200 0.25271 0.21789 0.00000
C235 C 0.83461 0.22513 0.21575 0.00000
O236 O 0.64953 0.71128 0.30703 0.00000
O237 O 0.61646 0.76824 0.31156 0.00000
H238 H 0.83100 0.75623 0.29698 0.00000
H239 H 0.66932 0.79742 0.25683 0.00000
C240 C 0.70187 0.78924 0.26481 0.00000
C241 C 0.74688 0.80422 0.24879 0.00000
C242 C 0.79609 0.79112 0.26163 0.00000
O243 O 0.85078 0.84237 0.24679 0.00000
C244 C 0.84529 0.80854 0.24899 0.00000
O245 O 0.88386 0.78541 0.24225 0.00000
C246 C 0.79845 0.76441 0.28900 0.00000
C247 C 0.75343 0.74943 0.30502 0.00000
C248 C 0.70423 0.76253 0.29219 0.00000
C249 C 0.65503 0.74511 0.30483 0.00000
O250 O 0.29552 0.62714 0.21968 0.00000
O251 O 0.24204 0.63637 0.17175 0.00000
H252 H 0.23691 0.73984 0.28414 0.00000
H253 H 0.26344 0.70651 0.16205 0.00000
C254 C 0.25809 0.71333 0.18653 0.00000
C255 C 0.25396 0.75086 0.19529 0.00000
C256 C 0.24577 0.76037 0.23300 0.00000
O257 O 0.20483 0.81921 0.22651 0.00000
C258 C 0.23522 0.79911 0.24380 0.00000
O259 O 0.25831 0.80998 0.27444 0.00000
C260 C 0.24225 0.73302 0.25966 0.00000
C261 C 0.24639 0.69549 0.25090 0.00000
C262 C 0.25457 0.68597 0.21319 0.00000
C263 C 0.26512 0.64724 0.20239 0.00000
O264 O 0.32576 0.13720 0.27679 0.00000
O265 O 0.38084 0.18395 0.28726 0.00000
H266 H 0.18560 0.21939 0.23203 0.00000
H267 H 0.31432 0.22697 0.32165 0.00000
C268 C 0.28839 0.22555 0.30370 0.00000
C269 C 0.24676 0.25057 0.30497 0.00000
C270 C 0.20773 0.24768 0.27710 0.00000
O271 O 0.17416 0.30915 0.27689 0.00000
C272 C 0.16572 0.27566 0.27420 0.00000
O273 O 0.11907 0.26240 0.26642 0.00000
C274 C 0.21153 0.22080 0.24998 0.00000
C275 C 0.25316 0.19578 0.24871 0.00000
C276 C 0.29219 0.19867 0.27658 0.00000
C277 C 0.33420 0.17069 0.27948 0.00000
O278 O 0.78863 0.73214 0.67977 0.00000
O279 O 0.72380 0.77209 0.69055 0.00000
H280 H 0.75423 0.66142 0.79370 0.00000
H281 H 0.74585 0.78473 0.76012 0.00000
C282 C 0.74751 0.76000 0.76699 0.00000
C283 C 0.74775 0.75098 0.80457 0.00000
C284 C 0.75031 0.71289 0.81416 0.00000
O285 O 0.71144 0.71400 0.87404 0.00000
C286 C 0.74485 0.70102 0.85311 0.00000
O287 O 0.77628 0.67406 0.86327 0.00000
C288 C 0.75257 0.68615 0.78682 0.00000
C289 C 0.75233 0.69516 0.74925 0.00000
C290 C 0.74977 0.73325 0.73965 0.00000
C291 C 0.75523 0.74513 0.70071 0.00000
O292 O 0.36471 0.80947 0.77440 0.00000
O293 O 0.35921 0.74829 0.78166 0.00000
H294 H 0.18370 0.82008 0.72867 0.00000
H295 H 0.31637 0.73377 0.71751 0.00000
C296 C 0.28963 0.75104 0.71965 0.00000
C297 C 0.24754 0.74941 0.69505 0.00000
C298 C 0.20725 0.77623 0.69908 0.00000
O299 O 0.13537 0.74438 0.67178 0.00000
C300 C 0.15883 0.77377 0.67683 0.00000
O301 O 0.14086 0.80557 0.66452 0.00000
C302 C 0.21044 0.80281 0.72653 0.00000
C303 C 0.25254 0.80445 0.75113 0.00000
C304 C 0.29282 0.77763 0.74710 0.00000
C305 C 0.34125 0.78008 0.76936 0.00000
O306 O 0.18921 0.36859 0.78166 0.00000
O307 O 0.12894 0.32675 0.79736 0.00000
H308 H 0.30647 0.27525 0.72698 0.00000
H309 H 0.19319 0.27860 0.82671 0.00000
C310 C 0.21602 0.27781 0.80673 0.00000
C311 C 0.25317 0.24952 0.80496 0.00000
C312 C 0.28750 0.24909 0.77401 0.00000
O313 O 0.31046 0.18527 0.77203 0.00000
C314 C 0.32384 0.21782 0.76812 0.00000
O315 O 0.37073 0.22710 0.75633 0.00000
C316 C 0.28365 0.27604 0.74696 0.00000
C317 C 0.24649 0.30433 0.74874 0.00000
C318 C 0.21217 0.30476 0.77968 0.00000
C319 C 0.17582 0.33604 0.78557 0.00000
O320 O 0.66742 0.90787 0.85646 0.00000
O321 O 0.63867 0.95158 0.89503 0.00000
H322 H 0.83486 0.97160 0.83403 0.00000
H323 H 0.66384 0.00848 0.85394 0.00000
C324 C 0.69823 0.00120 0.84990 0.00000
C325 C 0.73359 0.02670 0.83513 0.00000
C326 C 0.78592 0.01469 0.82930 0.00000
O327 O 0.83129 0.07221 0.83151 0.00000
C328 C 0.82682 0.04118 0.81766 0.00000
O329 O 0.86003 0.02850 0.79293 0.00000
C330 C 0.80047 0.97888 0.83806 0.00000
C331 C 0.76511 0.95338 0.85284 0.00000
C332 C 0.71278 0.96538 0.85867 0.00000
C333 C 0.67188 0.93890 0.87031 0.00000
O334 O 0.92746 0.11205 0.23452 0.00000
O335 O 0.98388 0.07381 0.20696 0.00000
H336 H 0.94381 0.20683 0.13729 0.00000
H337 H 0.05607 0.12317 0.19272 0.00000
C338 C 0.03368 0.14003 0.18153 0.00000
C339 C 0.05500 0.16933 0.16134 0.00000
C340 C 0.01967 0.19465 0.14456 0.00000
O341 O 0.07242 0.21795 0.09549 0.00000
C342 C 0.03906 0.22387 0.11943 0.00000
O343 O 0.01600 0.25619 0.12304 0.00000
C344 C 0.96620 0.18997 0.14848 0.00000
C345 C 0.94488 0.16067 0.16867 0.00000
C346 C 0.98021 0.13535 0.18545 0.00000
C347 C 0.96082 0.10613 0.21057 0.00000
O348 O 0.71144 0.06764 0.07733 0.00000
O349 O 0.74437 0.01490 0.05525 0.00000
H350 H 0.78380 0.04720 0.20198 0.00000
H351 H 0.71505 0.97251 0.11017 0.00000
C352 C 0.72885 0.98741 0.12870 0.00000
C353 C 0.73338 0.97315 0.16447 0.00000
C354 C 0.75466 0.99664 0.19218 0.00000
O355 O 0.78741 0.95207 0.23482 0.00000
C356 C 0.76605 0.98222 0.22959 0.00000
O357 O 0.75448 0.00482 0.25691 0.00000
C358 C 0.77000 0.03231 0.18346 0.00000
C359 C 0.76546 0.04657 0.14768 0.00000
C360 C 0.74418 0.02307 0.11997 0.00000
C361 C 0.73279 0.03749 0.08256 0.00000
O362 O 0.07533 0.91866 0.18591 0.00000
O363 O 0.02635 0.92999 0.13606 0.00000
H364 H 0.05176 0.78374 0.17652 0.00000
H365 H 0.94852 0.88626 0.15349 0.00000
C366 C 0.96909 0.86559 0.15810 0.00000
C367 C 0.94502 0.83105 0.16133 0.00000
C368 C 0.97762 0.79997 0.16838 0.00000
O369 O 0.92495 0.75133 0.14410 0.00000
C370 C 0.95578 0.76210 0.16805 0.00000
O371 O 0.97393 0.74000 0.19395 0.00000
C372 C 0.03118 0.80440 0.17191 0.00000
C373 C 0.05525 0.83895 0.16869 0.00000
C374 C 0.02266 0.87002 0.16163 0.00000
C375 C 0.04450 0.90790 0.16196 0.00000
O376 O 0.31600 0.92223 0.09671 0.00000
O377 O 0.30285 0.97341 0.06347 0.00000
H378 H 0.19149 0.95982 0.19374 0.00000
H379 H 0.30983 0.02046 0.11828 0.00000
C380 C 0.28604 0.00840 0.13351 0.00000
C381 C 0.26665 0.02682 0.16459 0.00000
C382 C 0.23030 0.00759 0.18732 0.00000
O383 O 0.18532 0.05806 0.21531 0.00000
C384 C 0.20373 0.02665 0.21825 0.00000
O385 O 0.19846 0.00687 0.24855 0.00000
C386 C 0.21527 0.97189 0.17851 0.00000
C387 C 0.23467 0.95347 0.14743 0.00000
C388 C 0.27101 0.97269 0.12470 0.00000
C389 C 0.29759 0.95363 0.09377 0.00000
O390 O 0.10453 0.90039 0.81190 0.00000
O391 O 0.05608 0.89160 0.76129 0.00000
H392 H 0.03288 0.79060 0.87478 0.00000
H393 H 0.96724 0.87939 0.79522 0.00000
C394 C 0.98024 0.86152 0.81122 0.00000
C395 C 0.94508 0.83961 0.83111 0.00000
C396 C 0.96624 0.81250 0.85535 0.00000
O397 O 0.89560 0.76960 0.85809 0.00000
C398 C 0.93168 0.78562 0.87414 0.00000
O399 O 0.94404 0.77839 0.90870 0.00000
C400 C 0.01988 0.80847 0.85878 0.00000
C401 C 0.05504 0.83038 0.83889 0.00000
C402 C 0.03389 0.85748 0.81464 0.00000
C403 C 0.06845 0.88437 0.79586 0.00000
O404 O 0.34584 0.89154 0.04907 0.00000
O405 O 0.38588 0.87625 0.99637 0.00000
H406 H 0.19789 0.80710 0.02660 0.00000
H407 H 0.30356 0.88092 0.95352 0.00000
C408 C 0.28222 0.86608 0.96809 0.00000
C409 C 0.23522 0.85294 0.95336 0.00000
C410 C 0.20346 0.83029 0.97637 0.00000
O411 O 0.15561 0.79648 0.93106 0.00000
C412 C 0.15620 0.81205 0.96141 0.00000
O413 O 0.11557 0.81177 0.98375 0.00000
C414 C 0.21922 0.82195 0.01203 0.00000
C415 C 0.26623 0.83508 0.02676 0.00000
C416 C 0.29799 0.85773 0.00375 0.00000
C417 C 0.34525 0.87597 0.01871 0.00000
O418 O 0.67269 0.16264 0.90476 0.00000
O419 O 0.62841 0.12726 0.94451 0.00000
H420 H 0.83715 0.15260 0.97518 0.00000
H421 H 0.66142 0.15938 0.00507 0.00000
C422 C 0.69675 0.15804 0.99990 0.00000
C423 C 0.73373 0.16491 0.02681 0.00000
C424 C 0.78748 0.16262 0.01693 0.00000
O425 O 0.82588 0.14934 0.07548 0.00000
C426 C 0.82873 0.16546 0.04547 0.00000
O427 O 0.87016 0.18472 0.03573 0.00000
C428 C 0.80182 0.15394 0.98105 0.00000
C429 C 0.76483 0.14707 0.95343 0.00000
C430 C 0.71109 0.14936 0.96331 0.00000
C431 C 0.66984 0.14652 0.93477 0.00000
O432 O 0.67705 0.82976 0.09620 0.00000
O433 O 0.62685 0.86301 0.05817 0.00000
H434 H 0.83697 0.85287 0.02366 0.00000
H435 H 0.66201 0.83494 0.99622 0.00000
C436 C 0.69719 0.83852 0.00160 0.00000
C437 C 0.73399 0.83496 0.97324 0.00000
C438 C 0.78750 0.84064 0.98239 0.00000
O439 O 0.82193 0.85805 0.92369 0.00000
C440 C 0.82797 0.84140 0.95316 0.00000
O441 O 0.87214 0.82479 0.96172 0.00000
C442 C 0.80180 0.84928 0.01828 0.00000
C443 C 0.76499 0.85284 0.04664 0.00000
C444 C 0.71148 0.84717 0.03750 0.00000
C445 C 0.67101 0.84640 0.06672 0.00000
O446 O 0.22104 0.21938 0.08618 0.00000
O447 O 0.30083 0.23291 0.06500 0.00000
H448 H 0.21675 0.09836 0.02362 0.00000
H449 H 0.28427 0.21383 0.99614 0.00000
C450 C 0.27074 0.19060 0.00153 0.00000
C451 C 0.26524 0.16486 0.97298 0.00000
C452 C 0.24443 0.12956 0.98215 0.00000
O453 O 0.27997 0.09281 0.93358 0.00000
C454 C 0.24289 0.09959 0.95434 0.00000
O455 O 0.20019 0.07928 0.95476 0.00000
C456 C 0.23028 0.12158 0.01823 0.00000
C457 C 0.23578 0.14733 0.04678 0.00000
C458 C 0.25659 0.18263 0.03761 0.00000
C459 C 0.25813 0.21260 0.06542 0.00000
O460 O 0.88250 0.66006 0.47039 0.00000
O461 O 0.88024 0.69760 0.51938 0.00000
H462 H 0.69038 0.65177 0.46243 0.00000
H463 H 0.81099 0.66022 0.55745 0.00000
C464 C 0.78663 0.65849 0.53846 0.00000
C465 C 0.73572 0.64711 0.54676 0.00000
C466 C 0.69939 0.64476 0.51708 0.00000
O467 O 0.61887 0.65193 0.54949 0.00000
C468 C 0.64352 0.63694 0.52427 0.00000
O469 O 0.62113 0.61439 0.50051 0.00000
C470 C 0.71474 0.65350 0.48142 0.00000
C471 C 0.76565 0.66488 0.47312 0.00000
C472 C 0.80198 0.66723 0.50280 0.00000
C473 C 0.85786 0.67505 0.49561 0.00000
O474 O 0.18753 0.59600 0.55886 0.00000
O475 O 0.13823 0.59522 0.50790 0.00000
H476 H 0.28466 0.70702 0.51971 0.00000
H477 H 0.21426 0.60517 0.46041 0.00000
C478 C 0.22849 0.62565 0.47220 0.00000
C479 C 0.26522 0.64723 0.45339 0.00000
C480 C 0.28624 0.67840 0.47221 0.00000
O481 O 0.31140 0.71618 0.42125 0.00000
C482 C 0.32077 0.70481 0.45273 0.00000
O483 O 0.36069 0.71696 0.47221 0.00000
C484 C 0.27043 0.68653 0.50791 0.00000
C485 C 0.23370 0.66495 0.52672 0.00000
C486 C 0.21268 0.63379 0.50790 0.00000
C487 C 0.17816 0.60738 0.52738 0.00000
O488 O 0.21710 0.29517 0.59565 0.00000
O489 O 0.14227 0.30929 0.56711 0.00000
H490 H 0.32039 0.38219 0.52036 0.00000
H491 H 0.17822 0.30584 0.49940 0.00000
C492 C 0.20679 0.32119 0.50347 0.00000
C493 C 0.23425 0.33508 0.47308 0.00000
C494 C 0.27776 0.35851 0.48026 0.00000
O495 O 0.28151 0.39285 0.42410 0.00000
C496 C 0.30508 0.37751 0.44962 0.00000
O497 O 0.35634 0.37873 0.45264 0.00000
C498 C 0.29182 0.36684 0.51628 0.00000
C499 C 0.26436 0.35294 0.54667 0.00000
C500 C 0.22085 0.32952 0.53949 0.00000
C501 C 0.19353 0.31051 0.57013 0.00000
O502 O 0.39970 0.73657 0.67566 0.00000
O503 O 0.45985 0.74512 0.71961 0.00000
H504 H 0.46015 0.61018 0.64789 0.00000
H505 H 0.53985 0.71983 0.68212 0.00000
C506 C 0.52402 0.69776 0.67521 0.00000
C507 C 0.55490 0.66950 0.66044 0.00000
C508 C 0.52948 0.63607 0.65016 0.00000
O509 O 0.60030 0.59344 0.65435 0.00000
C510 C 0.56024 0.60355 0.63822 0.00000
O511 O 0.54016 0.58489 0.61040 0.00000
C512 C 0.47599 0.63225 0.65479 0.00000
C513 C 0.44511 0.66051 0.66957 0.00000
C514 C 0.47053 0.69394 0.67985 0.00000
C515 C 0.43977 0.72646 0.69179 0.00000
O516 O 0.25829 0.42694 0.59831 0.00000
O517 O 0.21406 0.46980 0.56673 0.00000
H518 H 0.23753 0.49238 0.71695 0.00000
H519 H 0.26109 0.52754 0.59507 0.00000
C520 C 0.25639 0.52061 0.61959 0.00000
C521 C 0.26536 0.54663 0.64744 0.00000
C522 C 0.25781 0.53514 0.68467 0.00000
O523 O 0.24032 0.59297 0.71371 0.00000
C524 C 0.26087 0.56214 0.71531 0.00000
O525 O 0.28456 0.55012 0.74529 0.00000
C526 C 0.24222 0.49931 0.69243 0.00000
C527 C 0.23325 0.47329 0.66457 0.00000
C528 C 0.24080 0.48478 0.62735 0.00000
C529 C 0.23774 0.45778 0.59671 0.00000
O530 O 0.57537 0.35337 0.74911 0.00000
O531 O 0.51474 0.39747 0.74368 0.00000
H532 H 0.55564 0.31291 0.61973 0.00000
H533 H 0.44407 0.35708 0.71028 0.00000
C534 C 0.46632 0.34817 0.69202 0.00000
C535 C 0.44484 0.33047 0.66121 0.00000
C536 C 0.47996 0.31717 0.63376 0.00000
O537 O 0.42434 0.31662 0.58089 0.00000
C538 C 0.45997 0.30187 0.59856 0.00000
O539 O 0.48497 0.27251 0.58632 0.00000
C540 C 0.53338 0.32181 0.63799 0.00000
C541 C 0.55486 0.33952 0.66880 0.00000
C542 C 0.51975 0.35282 0.69624 0.00000
C543 C 0.53973 0.36812 0.73144 0.00000
O544 O 0.77135 0.43727 0.57087 0.00000
O545 O 0.73096 0.48996 0.55601 0.00000
H546 H 0.72981 0.44954 0.70338 0.00000
H547 H 0.77127 0.53053 0.60878 0.00000
C548 C 0.76297 0.51437 0.62787 0.00000
C549 C 0.76662 0.52676 0.66438 0.00000
C550 C 0.75362 0.50135 0.69294 0.00000
O551 O 0.72973 0.54280 0.74129 0.00000
C552 C 0.75092 0.51362 0.73191 0.00000
O553 O 0.77012 0.49012 0.75614 0.00000
C554 C 0.73811 0.46571 0.68429 0.00000
C555 C 0.73447 0.45331 0.64778 0.00000
C556 C 0.74746 0.47873 0.61921 0.00000
C557 C 0.75016 0.46646 0.58024 0.00000
O558 O 0.39815 0.33546 0.40627 0.00000
O559 O 0.44410 0.28331 0.41227 0.00000
H560 H 0.46645 0.36040 0.28129 0.00000
H561 H 0.53353 0.30959 0.38870 0.00000
C562 C 0.52024 0.31980 0.36708 0.00000
C563 C 0.55500 0.33122 0.33953 0.00000
C564 C 0.53341 0.34672 0.30678 0.00000
O565 O 0.60184 0.33453 0.26373 0.00000
C566 C 0.56726 0.35560 0.27482 0.00000
O567 O 0.55589 0.38669 0.25772 0.00000
C568 C 0.47975 0.35019 0.30291 0.00000
C569 C 0.44498 0.33878 0.33047 0.00000
C570 C 0.46658 0.32328 0.36322 0.00000
C571 C 0.43272 0.31439 0.39518 0.00000
O572 O 0.75781 0.55903 0.43241 0.00000
O573 O 0.71298 0.50681 0.44138 0.00000
H574 H 0.74038 0.55248 0.29685 0.00000
H575 H 0.76099 0.46724 0.39113 0.00000
C576 C 0.75689 0.48426 0.37211 0.00000
C577 C 0.76669 0.47310 0.33577 0.00000
C578 C 0.76004 0.49981 0.30729 0.00000
O579 O 0.74356 0.46068 0.25557 0.00000
C580 C 0.76400 0.48901 0.26794 0.00000
O581 O 0.78839 0.51290 0.24660 0.00000
C582 C 0.74448 0.53546 0.31587 0.00000
C583 C 0.73468 0.54661 0.35222 0.00000
C584 C 0.74133 0.51991 0.38069 0.00000
C585 C 0.73737 0.53070 0.42004 0.00000
O586 O 0.59726 0.63627 0.40373 0.00000
O587 O 0.55326 0.68438 0.42675 0.00000
H588 H 0.53596 0.65908 0.27655 0.00000
H589 H 0.46432 0.67092 0.39344 0.00000
C590 C 0.47853 0.66856 0.36991 0.00000
C591 C 0.44509 0.66868 0.33935 0.00000
C592 C 0.46807 0.66502 0.30372 0.00000
O593 O 0.40303 0.69373 0.26626 0.00000
C594 C 0.43593 0.66903 0.26996 0.00000
O595 O 0.44702 0.64562 0.24324 0.00000
C596 C 0.52175 0.66144 0.30008 0.00000
C597 C 0.55520 0.66132 0.33065 0.00000
C598 C 0.53221 0.66498 0.36627 0.00000
C599 C 0.56436 0.66097 0.40003 0.00000
O600 O 0.29944 0.55194 0.27186 0.00000
O601 O 0.36719 0.53294 0.30587 0.00000
H602 H 0.16972 0.51228 0.36455 0.00000
H603 H 0.32919 0.46800 0.32329 0.00000
C604 C 0.29714 0.47677 0.33164 0.00000
C605 C 0.26467 0.45315 0.35185 0.00000
C606 C 0.21588 0.46743 0.36424 0.00000
O607 O 0.19948 0.42834 0.41599 0.00000
C608 C 0.18211 0.44551 0.38918 0.00000
O609 O 0.13172 0.44733 0.38197 0.00000
C610 C 0.20178 0.50350 0.35620 0.00000
C611 C 0.23425 0.52713 0.33600 0.00000
C612 C 0.28303 0.51285 0.32361 0.00000
C613 C 0.31681 0.53477 0.29867 0.00000
O614 O 0.64656 0.30222 0.43425 0.00000
O615 O 0.69906 0.25693 0.45384 0.00000
H616 H 0.77439 0.39980 0.46399 0.00000
H617 H 0.72669 0.28801 0.51626 0.00000
C618 C 0.73637 0.31049 0.50587 0.00000
C619 C 0.76514 0.33553 0.52714 0.00000
C620 C 0.77935 0.36968 0.51043 0.00000
O621 O 0.85452 0.38559 0.54599 0.00000
C622 C 0.81463 0.39576 0.52969 0.00000
O623 O 0.80202 0.43088 0.52641 0.00000
C624 C 0.76471 0.37732 0.47437 0.00000
C625 C 0.73593 0.35227 0.45311 0.00000
C626 C 0.72173 0.31813 0.46982 0.00000
C627 C 0.68645 0.29205 0.45056 0.00000
O628 O 0.18639 0.92292 0.86894 0.00000
O629 O 0.20051 0.95484 0.92083 0.00000
H630 H 0.30874 0.99990 0.79615 0.00000
H631 H 0.19242 0.02089 0.89170 0.00000
C632 C 0.21579 0.01663 0.87250 0.00000
C633 C 0.23452 0.04671 0.85216 0.00000
C634 C 0.27026 0.03926 0.82296 0.00000
O635 O 0.31476 0.09701 0.81891 0.00000
C636 C 0.29617 0.06987 0.80295 0.00000
O637 O 0.30065 0.06508 0.76702 0.00000
C638 C 0.28536 0.00329 0.81536 0.00000
C639 C 0.26663 0.97322 0.83569 0.00000
C640 C 0.23090 0.98066 0.86490 0.00000
C641 C 0.20499 0.95006 0.88491 0.00000
O642 O 0.08965 0.21654 0.77518 0.00000
O643 O 0.02599 0.19338 0.73982 0.00000
H644 H 0.04771 0.13480 0.88012 0.00000
H645 H 0.95202 0.19521 0.78988 0.00000
C646 C 0.97107 0.18305 0.80807 0.00000
C647 C 0.94495 0.16968 0.83927 0.00000
C648 C 0.97523 0.15120 0.86659 0.00000
O649 O 0.91008 0.11347 0.89481 0.00000
C650 C 0.94961 0.13275 0.89827 0.00000
O651 O 0.97373 0.13663 0.93017 0.00000
C652 C 0.02866 0.14696 0.86193 0.00000
C653 C 0.05478 0.16033 0.83073 0.00000
C654 C 0.02450 0.17881 0.80341 0.00000
C655 C 0.05012 0.19727 0.77172 0.00000
loop_
_geom_bond_atom_site_label_1
_geom_bond_atom_site_label_2
_geom_bond_distance
_geom_bond_site_symmetry_2
_ccdc_geom_bond_type
O0 In4 2.242 . S
O0 C8 1.247 . A
O1 In4 2.259 . S
O1 C8 1.260 . A
O2 In4 2.300 . S
O2 C11 1.245 . A
O3 In4 2.234 . S
O3 C11 1.251 . A
In4 O6 2.242 . S
In4 O7 2.285 . S
In4 O9 2.397 . S
In4 O10 2.185 . S
C5 O9 1.269 . A
C5 O10 1.254 . A
O6 C12 1.251 . A
O7 C12 1.256 . A
O13 In17 2.242 . S
O13 C21 1.247 . A
O14 In17 2.259 . S
O14 C21 1.260 . A
O15 In17 2.300 . S
O15 C24 1.245 . A
O16 In17 2.234 . S
O16 C24 1.251 . A
In17 O19 2.242 . S
In17 O20 2.285 . S
In17 O22 2.397 . S
In17 O23 2.185 . S
C18 O22 1.269 . A
C18 O23 1.254 . A
O19 C25 1.251 . A
O20 C25 1.256 . A
O26 In30 2.242 . S
O26 C34 1.247 . A
O27 In30 2.259 . S
O27 C34 1.260 . A
O28 In30 2.300 . S
O28 C37 1.245 . A
O29 In30 2.234 . S
O29 C37 1.251 . A
In30 O32 2.242 . S
In30 O33 2.285 . S
In30 O35 2.397 . S
In30 O36 2.185 . S
C31 O35 1.269 . A
C31 O36 1.254 . A
O32 C38 1.251 . A
O33 C38 1.256 . A
O39 In43 2.242 . S
O39 C47 1.247 . A
O40 In43 2.259 . S
O40 C47 1.260 . A
O41 In43 2.300 . S
O41 C50 1.245 . A
O42 In43 2.234 . S
O42 C50 1.251 . A
In43 O45 2.242 . S
In43 O46 2.285 . S
In43 O48 2.397 . S
In43 O49 2.185 . S
C44 O48 1.269 . A
C44 O49 1.254 . A
O45 C51 1.251 . A
O46 C51 1.256 . A
O52 In56 2.242 . S
O52 C60 1.247 . A
O53 In56 2.259 . S
O53 C60 1.260 . A
O54 In56 2.300 . S
O54 C63 1.245 . A
O55 In56 2.234 . S
O55 C63 1.251 . A
In56 O58 2.242 . S
In56 O59 2.285 . S
In56 O61 2.397 . S
In56 O62 2.185 . S
C57 O61 1.269 . A
C57 O62 1.254 . A
O58 C64 1.251 . A
O59 C64 1.256 . A
O65 In69 2.242 . S
O65 C73 1.247 . A
O66 In69 2.259 . S
O66 C73 1.260 . A
O67 In69 2.300 . S
O67 C76 1.245 . A
O68 In69 2.234 . S
O68 C76 1.251 . A
In69 O71 2.242 . S
In69 O72 2.285 . S
In69 O74 2.397 . S
In69 O75 2.185 . S
C70 O74 1.269 . A
C70 O75 1.254 . A
O71 C77 1.251 . A
O72 C77 1.256 . A
O78 In82 2.242 . S
O78 C86 1.247 . A
O79 In82 2.259 . S
O79 C86 1.260 . A
O80 In82 2.300 . S
O80 C89 1.245 . A
O81 In82 2.234 . S
O81 C89 1.251 . A
In82 O84 2.242 . S
In82 O85 2.285 . S
In82 O87 2.397 . S
In82 O88 2.185 . S
C83 O87 1.269 . A
C83 O88 1.254 . A
O84 C90 1.251 . A
O85 C90 1.256 . A
O91 In95 2.242 . S
O91 C99 1.247 . A
O92 In95 2.259 . S
O92 C99 1.260 . A
O93 In95 2.300 . S
O93 C102 1.245 . A
O94 In95 2.234 . S
O94 C102 1.251 . A
In95 O97 2.242 . S
In95 O98 2.285 . S
In95 O100 2.397 . S
In95 O101 2.185 . S
C96 O100 1.269 . A
C96 O101 1.254 . A
O97 C103 1.251 . A
O98 C103 1.256 . A
O104 In108 2.242 . S
O104 C112 1.247 . A
O105 In108 2.259 . S
O105 C112 1.260 . A
O106 In108 2.300 . S
O106 C115 1.245 . A
O107 In108 2.234 . S
O107 C115 1.251 . A
In108 O110 2.242 . S
In108 O111 2.285 . S
In108 O113 2.397 . S
In108 O114 2.185 . S
C109 O113 1.269 . A
C109 O114 1.254 . A
O110 C116 1.251 . A
O111 C116 1.256 . A
O117 In121 2.242 . S
O117 C125 1.247 . A
O118 In121 2.259 . S
O118 C125 1.260 . A
O119 In121 2.300 . S
O119 C128 1.245 . A
O120 In121 2.234 . S
O120 C128 1.251 . A
In121 O123 2.242 . S
In121 O124 2.285 . S
In121 O126 2.397 . S
In121 O127 2.185 . S
C122 O126 1.269 . A
C122 O127 1.254 . A
O123 C129 1.251 . A
O124 C129 1.256 . A
O130 In134 2.242 . S
O130 C138 1.247 . A
O131 In134 2.259 . S
O131 C138 1.260 . A
O132 In134 2.300 . S
O132 C141 1.245 . A
O133 In134 2.234 . S
O133 C141 1.251 . A
In134 O136 2.242 . S
In134 O137 2.285 . S
In134 O139 2.397 . S
In134 O140 2.185 . S
C135 O139 1.269 . A
C135 O140 1.254 . A
O136 C142 1.251 . A
O137 C142 1.256 . A
O143 In147 2.242 . S
O143 C151 1.247 . A
O144 In147 2.259 . S
O144 C151 1.260 . A
O145 In147 2.300 . S
O145 C154 1.245 . A
O146 In147 2.234 . S
O146 C154 1.251 . A
In147 O149 2.242 . S
In147 O150 2.285 . S
In147 O152 2.397 . S
In147 O153 2.185 . S
C148 O152 1.269 . A
C148 O153 1.254 . A
O149 C155 1.251 . A
O150 C155 1.256 . A
O156 In160 2.242 . S
O156 C164 1.247 . A
O157 In160 2.259 . S
O157 C164 1.260 . A
O158 In160 2.300 . S
O158 C167 1.245 . A
O159 In160 2.234 . S
O159 C167 1.251 . A
In160 O162 2.242 . S
In160 O163 2.285 . S
In160 O165 2.397 . S
In160 O166 2.185 . S
C161 O165 1.269 . A
C161 O166 1.254 . A
O162 C168 1.251 . A
O163 C168 1.256 . A
O169 In173 2.242 . S
O169 C177 1.247 . A
O170 In173 2.259 . S
O170 C177 1.260 . A
O171 In173 2.300 . S
O171 C180 1.245 . A
O172 In173 2.234 . S
O172 C180 1.251 . A
In173 O175 2.242 . S
In173 O176 2.285 . S
In173 O178 2.397 . S
In173 O179 2.185 . S
C174 O178 1.269 . A
C174 O179 1.254 . A
O175 C181 1.251 . A
O176 C181 1.256 . A
O182 In186 2.242 . S
O182 C190 1.247 . A
O183 In186 2.259 . S
O183 C190 1.260 . A
O184 In186 2.300 . S
O184 C193 1.245 . A
O185 In186 2.234 . S
O185 C193 1.251 . A
In186 O188 2.242 . S
In186 O189 2.285 . S
In186 O191 2.397 . S
In186 O192 2.185 . S
C187 O191 1.269 . A
C187 O192 1.254 . A
O188 C194 1.251 . A
O189 C194 1.256 . A
O195 In199 2.242 . S
O195 C203 1.247 . A
O196 In199 2.259 . S
O196 C203 1.260 . A
O197 In199 2.300 . S
O197 C206 1.245 . A
O198 In199 2.234 . S
O198 C206 1.251 . A
In199 O201 2.242 . S
In199 O202 2.285 . S
In199 O204 2.397 . S
In199 O205 2.185 . S
C200 O204 1.269 . A
C200 O205 1.254 . A
O201 C207 1.251 . A
O202 C207 1.256 . A
O208 C221 1.235 . A
O209 C221 1.317 . A
H210 C218 0.930 . S
H211 C212 0.930 . S
C212 C213 1.399 . A
C212 C220 1.386 . A
C213 C214 1.423 . A
C214 C216 1.480 . S
C214 C218 1.386 . A
O215 C216 1.235 . A
C216 O217 1.317 . A
C218 C219 1.399 . A
C219 C220 1.423 . A
C220 C221 1.480 . S
O222 C235 1.235 . A
O223 C235 1.317 . A
H224 C232 0.930 . S
H225 C226 0.930 . S
C226 C227 1.399 . A
C226 C234 1.386 . A
C227 C228 1.423 . A
C228 C230 1.480 . S
C228 C232 1.386 . A
O229 C230 1.235 . A
C230 O231 1.317 . A
C232 C233 1.399 . A
C233 C234 1.423 . A
C234 C235 1.480 . S
O236 C249 1.235 . A
O237 C249 1.317 . A
H238 C246 0.930 . S
H239 C240 0.930 . S
C240 C241 1.399 . A
C240 C248 1.386 . A
C241 C242 1.423 . A
C242 C244 1.480 . S
C242 C246 1.386 . A
O243 C244 1.235 . A
C244 O245 1.317 . A
C246 C247 1.399 . A
C247 C248 1.423 . A
C248 C249 1.480 . S
O250 C263 1.235 . A
O251 C263 1.317 . A
H252 C260 0.930 . S
H253 C254 0.930 . S
C254 C255 1.399 . A
C254 C262 1.386 . A
C255 C256 1.423 . A
C256 C258 1.480 . S
C256 C260 1.386 . A
O257 C258 1.235 . A
C258 O259 1.317 . A
C260 C261 1.399 . A
C261 C262 1.423 . A
C262 C263 1.480 . S
O264 C277 1.235 . A
O265 C277 1.317 . A
H266 C274 0.930 . S
H267 C268 0.930 . S
C268 C269 1.399 . A
C268 C276 1.386 . A
C269 C270 1.423 . A
C270 C272 1.480 . S
C270 C274 1.386 . A
O271 C272 1.235 . A
C272 O273 1.317 . A
C274 C275 1.399 . A
C275 C276 1.423 . A
C276 C277 1.480 . S
O278 C291 1.235 . A
O279 C291 1.317 . A
H280 C288 0.930 . S
H281 C282 0.930 . S
C282 C283 1.399 . A
C282 C290 1.386 . A
C283 C284 1.423 . A
C284 C286 1.480 . S
C284 C288 1.386 . A
O285 C286 1.235 . A
C286 O287 1.317 . A
C288 C289 1.399 . A
C289 C290 1.423 . A
C290 C291 1.480 . S
O292 C305 1.235 . A
O293 C305 1.317 . A
H294 C302 0.930 . S
H295 C296 0.930 . S
C296 C297 1.399 . A
C296 C304 1.386 . A
C297 C298 1.423 . A
C298 C300 1.480 . S
C298 C302 1.386 . A
O299 C300 1.235 . A
C300 O301 1.317 . A
C302 C303 1.399 . A
C303 C304 1.423 . A
C304 C305 1.480 . S
O306 C319 1.235 . A
O307 C319 1.317 . A
H308 C316 0.930 . S
H309 C310 0.930 . S
C310 C311 1.399 . A
C310 C318 1.386 . A
C311 C312 1.423 . A
C312 C314 1.480 . S
C312 C316 1.386 . A
O313 C314 1.235 . A
C314 O315 1.317 . A
C316 C317 1.399 . A
C317 C318 1.423 . A
C318 C319 1.480 . S
O320 C333 1.235 . A
O321 C333 1.317 . A
H322 C330 0.930 . S
H323 C324 0.930 . S
C324 C325 1.399 . A
C324 C332 1.386 1_545 A
C325 C326 1.423 . A
C326 C328 1.480 . S
C326 C330 1.386 1_545 A
O327 C328 1.235 . A
C328 O329 1.317 . A
C330 C331 1.399 . A
C331 C332 1.423 . A
C332 C333 1.480 . S
O334 C347 1.235 . A
O335 C347 1.317 . A
H336 C344 0.930 . S
H337 C338 0.930 . S
C338 C339 1.399 . A
C338 C346 1.386 1_455 A
C339 C340 1.423 . A
C340 C342 1.480 . S
C340 C344 1.386 1_455 A
O341 C342 1.235 . A
C342 O343 1.317 . A
C344 C345 1.399 . A
C345 C346 1.423 . A
C346 C347 1.480 . S
O348 C361 1.235 . A
O349 C361 1.317 . A
H350 C358 0.930 . S
H351 C352 0.930 . S
C352 C353 1.399 . A
C352 C360 1.386 1_565 A
C353 C354 1.423 . A
C354 C356 1.480 . S
C354 C358 1.386 1_565 A
O355 C356 1.235 . A
C356 O357 1.317 1_565 A
C358 C359 1.399 . A
C359 C360 1.423 . A
C360 C361 1.480 . S
O362 C375 1.235 . A
O363 C375 1.317 . A
H364 C372 0.930 . S
H365 C366 0.930 . S
C366 C367 1.399 . A
C366 C374 1.386 1_655 A
C367 C368 1.423 . A
C368 C370 1.480 . S
C368 C372 1.386 1_655 A
O369 C370 1.235 . A
C370 O371 1.317 . A
C372 C373 1.399 . A
C373 C374 1.423 . A
C374 C375 1.480 . S
O376 C389 1.235 . A
O377 C389 1.317 . A
H378 C386 0.930 . S
H379 C380 0.930 . S
C380 C381 1.399 . A
C380 C388 1.386 1_545 A
C381 C382 1.423 . A
C382 C384 1.480 . S
C382 C386 1.386 1_545 A
O383 C384 1.235 . A
C384 O385 1.317 . A
C386 C387 1.399 . A
C387 C388 1.423 . A
C388 C389 1.480 . S
O390 C403 1.235 . A
O391 C403 1.317 . A
H392 C400 0.930 . S
H393 C394 0.930 . S
C394 C395 1.399 . A
C394 C402 1.386 1_655 A
C395 C396 1.423 . A
C396 C398 1.480 . S
C396 C400 1.386 1_655 A
O397 C398 1.235 . A
C398 O399 1.317 . A
C400 C401 1.399 . A
C401 C402 1.423 . A
C402 C403 1.480 . S
O404 C417 1.235 . A
O405 C417 1.317 1_556 A
H406 C414 0.930 . S
H407 C408 0.930 . S
C408 C409 1.399 . A
C408 C416 1.386 1_556 A
C409 C410 1.423 . A
C410 C412 1.480 . S
C410 C414 1.386 1_556 A
O411 C412 1.235 . A
C412 O413 1.317 . A
C414 C415 1.399 . A
C415 C416 1.423 . A
C416 C417 1.480 . S
O418 C431 1.235 . A
O419 C431 1.317 . A
H420 C428 0.930 . S
H421 C422 0.924 1_554 S
C422 C423 1.381 1_556 A
C422 C430 1.410 . A
C423 C424 1.423 . A
C424 C426 1.480 . S
C424 C428 1.386 1_554 A
O425 C426 1.235 . A
C426 O427 1.317 . A
C428 C429 1.399 . A
C429 C430 1.423 . A
C430 C431 1.480 . S
O432 C445 1.235 . A
O433 C445 1.317 . A
H434 C442 0.930 . S
H435 C436 0.930 1_556 S
C436 C437 1.399 1_554 A
C436 C444 1.386 . A
C437 C438 1.423 . A
C438 C440 1.480 . S
C438 C442 1.386 1_556 A
O439 C440 1.235 . A
C440 O441 1.317 . A
C442 C443 1.399 . A
C443 C444 1.423 . A
C444 C445 1.480 . S
O446 C459 1.235 . A
O447 C459 1.317 . A
H448 C456 0.930 . S
H449 C450 0.930 1_556 S
C450 C451 1.399 1_554 A
C450 C458 1.386 . A
C451 C452 1.423 . A
C452 C454 1.480 . S
C452 C456 1.386 1_556 A
O453 C454 1.235 . A
C454 O455 1.317 . A
C456 C457 1.399 . A
C457 C458 1.423 . A
C458 C459 1.480 . S
O460 C473 1.235 . A
O461 C473 1.317 . A
H462 C470 0.930 . S
H463 C464 0.930 . S
C464 C465 1.399 . A
C464 C472 1.386 . A
C465 C466 1.423 . A
C466 C468 1.480 . S
C466 C470 1.386 . A
O467 C468 1.235 . A
C468 O469 1.317 . A
C470 C471 1.399 . A
C471 C472 1.423 . A
C472 C473 1.480 . S
O474 C487 1.235 . A
O475 C487 1.317 . A
H476 C484 0.930 . S
H477 C478 0.930 . S
C478 C479 1.399 . A
C478 C486 1.386 . A
C479 C480 1.423 . A
C480 C482 1.480 . S
C480 C484 1.386 . A
O481 C482 1.235 . A
C482 O483 1.317 . A
C484 C485 1.399 . A
C485 C486 1.423 . A
C486 C487 1.480 . S
O488 C501 1.235 . A
O489 C501 1.317 . A
H490 C498 0.930 . S
H491 C492 0.930 . S
C492 C493 1.399 . A
C492 C500 1.386 . A
C493 C494 1.423 . A
C494 C496 1.480 . S
C494 C498 1.386 . A
O495 C496 1.235 . A
C496 O497 1.317 . A
C498 C499 1.399 . A
C499 C500 1.423 . A
C500 C501 1.480 . S
O502 C515 1.235 . A
O503 C515 1.317 . A
H504 C512 0.930 . S
H505 C506 0.930 . S
C506 C507 1.399 . A
C506 C514 1.386 . A
C507 C508 1.423 . A
C508 C510 1.480 . S
C508 C512 1.386 . A
O509 C510 1.235 . A
C510 O511 1.317 . A
C512 C513 1.399 . A
C513 C514 1.423 . A
C514 C515 1.480 . S
O516 C529 1.235 . A
O517 C529 1.317 . A
H518 C526 0.930 . S
H519 C520 0.930 . S
C520 C521 1.399 . A
C520 C528 1.386 . A
C521 C522 1.423 . A
C522 C524 1.480 . S
C522 C526 1.386 . A
O523 C524 1.235 . A
C524 O525 1.317 . A
C526 C527 1.399 . A
C527 C528 1.423 . A
C528 C529 1.480 . S
O530 C543 1.235 . A
O531 C543 1.317 . A
H532 C540 0.930 . S
H533 C534 0.930 . S
C534 C535 1.399 . A
C534 C542 1.386 . A
C535 C536 1.423 . A
C536 C538 1.480 . S
C536 C540 1.386 . A
O537 C538 1.235 . A
C538 O539 1.317 . A
C540 C541 1.399 . A
C541 C542 1.423 . A
C542 C543 1.480 . S
O544 C557 1.235 . A
O545 C557 1.317 . A
H546 C554 0.930 . S
H547 C548 0.930 . S
C548 C549 1.399 . A
C548 C556 1.386 . A
C549 C550 1.423 . A
C550 C552 1.480 . S
C550 C554 1.386 . A
O551 C552 1.235 . A
C552 O553 1.317 . A
C554 C555 1.399 . A
C555 C556 1.423 . A
C556 C557 1.480 . S
O558 C571 1.235 . A
O559 C571 1.317 . A
H560 C568 0.930 . S
H561 C562 0.930 . S
C562 C563 1.399 . A
C562 C570 1.386 . A
C563 C564 1.423 . A
C564 C566 1.480 . S
C564 C568 1.386 . A
O565 C566 1.235 . A
C566 O567 1.317 . A
C568 C569 1.399 . A
C569 C570 1.423 . A
C570 C571 1.480 . S
O572 C585 1.235 . A
O573 C585 1.317 . A
H574 C582 0.930 . S
H575 C576 0.930 . S
C576 C577 1.399 . A
C576 C584 1.386 . A
C577 C578 1.423 . A
C578 C580 1.480 . S
C578 C582 1.386 . A
O579 C580 1.235 . A
C580 O581 1.317 . A
C582 C583 1.399 . A
C583 C584 1.423 . A
C584 C585 1.480 . S
O586 C599 1.235 . A
O587 C599 1.317 . A
H588 C596 0.930 . S
H589 C590 0.930 . S
C590 C591 1.399 . A
C590 C598 1.386 . A
C591 C592 1.423 . A
C592 C594 1.480 . S
C592 C596 1.386 . A
O593 C594 1.235 . A
C594 O595 1.317 . A
C596 C597 1.399 . A
C597 C598 1.423 . A
C598 C599 1.480 . S
O600 C613 1.235 . A
O601 C613 1.317 . A
H602 C610 0.930 . S
H603 C604 0.930 . S
C604 C605 1.399 . A
C604 C612 1.386 . A
C605 C606 1.423 . A
C606 C608 1.480 . S
C606 C610 1.386 . A
O607 C608 1.235 . A
C608 O609 1.317 . A
C610 C611 1.399 . A
C611 C612 1.423 . A
C612 C613 1.480 . S
O614 C627 1.235 . A
O615 C627 1.317 . A
H616 C624 0.930 . S
H617 C618 0.930 . S
C618 C619 1.399 . A
C618 C626 1.386 . A
C619 C620 1.423 . A
C620 C622 1.480 . S
C620 C624 1.386 . A
O621 C622 1.235 . A
C622 O623 1.317 . A
C624 C625 1.399 . A
C625 C626 1.423 . A
C626 C627 1.480 . S
O628 C641 1.235 . A
O629 C641 1.317 . A
H630 C638 0.925 1_565 S
H631 C632 0.930 . S
C632 C633 1.399 . A
C632 C640 1.386 1_545 A
C633 C634 1.423 . A
C634 C636 1.480 . S
C634 C638 1.386 . A
O635 C636 1.235 . A
C636 O637 1.317 . A
C638 C639 1.399 1_545 A
C639 C640 1.423 . A
C640 C641 1.480 . S
O642 C655 1.235 . A
O643 C655 1.317 . A
H644 C652 0.930 . S
H645 C646 0.930 . S
C646 C647 1.399 . A
C646 C654 1.386 1_655 A
C647 C648 1.423 . A
C648 C650 1.480 . S
C648 C652 1.386 1_655 A
O649 C650 1.235 . A
C650 O651 1.317 . A
C652 C653 1.399 . A
C653 C654 1.423 . A
C654 C655 1.480 . S
C213 C190 1.305 . S
C219 C8 1.303 . S
C227 C203 1.304 . S
C233 C21 1.306 . S
C241 C34 1.305 . S
C247 C112 1.308 . S
C255 C47 1.309 . S
C261 C125 1.309 . S
C269 C138 1.308 . S
C275 C60 1.305 . S
C283 C73 1.302 . S
C289 C151 1.303 . S
C297 C164 1.304 . S
C303 C86 1.302 . S
C311 C99 1.308 . S
C317 C177 1.306 . S
C325 C12 1.655 . S
C331 C76 1.754 . S
C339 C57 1.657 . S
C345 C18 1.654 . S
C353 C38 1.656 . S
C359 C24 1.753 . S
C367 C31 1.654 . S
C373 C44 1.653 . S
C381 C64 1.656 . S
C387 C50 1.753 . S
C395 C70 1.658 . S
C401 C83 1.661 . S
C409 C89 1.753 . S
C415 C51 1.653 . S
C423 C25 1.653 . S
C429 C11 1.753 . S
C437 C77 1.653 . S
C443 C37 1.753 . S
C451 C103 1.646 . S
C457 C63 1.750 . S
C465 C154 1.752 . S
C471 C116 1.648 . S
C479 C128 1.754 . S
C485 C168 1.655 . S
C493 C142 1.649 . S
C499 C180 1.752 . S
C507 C148 1.663 . S
C513 C161 1.664 . S
C521 C167 1.754 . S
C527 C181 1.656 . S
C535 C174 1.660 . S
C541 C187 1.657 . S
C549 C155 1.655 . S
C555 C193 1.754 . S
C563 C200 1.656 . S
C569 C135 1.659 . S
C577 C207 1.655 . S
C583 C115 1.753 . S
C591 C122 1.655 . S
C597 C109 1.657 . S
C605 C141 1.750 . S
C611 C129 1.647 . S
C619 C194 1.644 . S
C625 C206 1.749 . S
C633 C102 1.753 . S
C639 C90 1.655 . S
C647 C5 1.663 . S
C653 C96 1.662 . S
