# Generated by pormake.
# Topology pcb, (4)-cn, num edge types: 1
# Building blocks:
#     Node 0, Type 0, BuildingBlock: N446, # of connection points: 7
#     Node 1, Type 0, BuildingBlock: N446, # of connection points: 7
#     Node 2, Type 0, BuildingBlock: N446, # of connection points: 7
#     Node 3, Type 0, BuildingBlock: N446, # of connection points: 7
#     Node 4, Type 0, BuildingBlock: N446, # of connection points: 7
#     Node 5, Type 0, BuildingBlock: N446, # of connection points: 7
#     Node 6, Type 0, BuildingBlock: N446, # of connection points: 7
#     Node 7, Type 0, BuildingBlock: N446, # of connection points: 7
#     Node 8, Type 0, BuildingBlock: N446, # of connection points: 7
#     Node 9, Type 0, BuildingBlock: N446, # of connection points: 7
#     Node 10, Type 0, BuildingBlock: N446, # of connection points: 7
#     Node 11, Type 0, BuildingBlock: N446, # of connection points: 7
#     Node 12, Type 0, BuildingBlock: N446, # of connection points: 7
#     Node 13, Type 0, BuildingBlock: N446, # of connection points: 7
#     Node 14, Type 0, BuildingBlock: N446, # of connection points: 7
#     Node 15, Type 0, BuildingBlock: N446, # of connection points: 7
#     Edge 16, Type (0, 0), BuildingBlock: E8, # of connection points: 2
#     Edge 17, Type (0, 0), BuildingBlock: E8, # of connection points: 2
#     Edge 18, Type (0, 0), BuildingBlock: E8, # of connection points: 2
#     Edge 19, Type (0, 0), BuildingBlock: E8, # of connection points: 2
#     Edge 20, Type (0, 0), BuildingBlock: E8, # of connection points: 2
#     Edge 21, Type (0, 0), BuildingBlock: E8, # of connection points: 2
#     Edge 22, Type (0, 0), BuildingBlock: E8, # of connection points: 2
#     Edge 23, Type (0, 0), BuildingBlock: E8, # of connection points: 2
#     Edge 24, Type (0, 0), BuildingBlock: E8, # of connection points: 2
#     Edge 25, Type (0, 0), BuildingBlock: E8, # of connection points: 2
#     Edge 26, Type (0, 0), BuildingBlock: E8, # of connection points: 2
#     Edge 27, Type (0, 0), BuildingBlock: E8, # of connection points: 2
#     Edge 28, Type (0, 0), BuildingBlock: E8, # of connection points: 2
#     Edge 29, Type (0, 0), BuildingBlock: E8, # of connection points: 2
#     Edge 30, Type (0, 0), BuildingBlock: E8, # of connection points: 2
#     Edge 31, Type (0, 0), BuildingBlock: E8, # of connection points: 2
#     Edge 32, Type (0, 0), BuildingBlock: E8, # of connection points: 2
#     Edge 33, Type (0, 0), BuildingBlock: E8, # of connection points: 2
#     Edge 34, Type (0, 0), BuildingBlock: E8, # of connection points: 2
#     Edge 35, Type (0, 0), BuildingBlock: E8, # of connection points: 2
#     Edge 36, Type (0, 0), BuildingBlock: E8, # of connection points: 2
#     Edge 37, Type (0, 0), BuildingBlock: E8, # of connection points: 2
#     Edge 38, Type (0, 0), BuildingBlock: E8, # of connection points: 2
#     Edge 39, Type (0, 0), BuildingBlock: E8, # of connection points: 2
#     Edge 40, Type (0, 0), BuildingBlock: E8, # of connection points: 2
#     Edge 41, Type (0, 0), BuildingBlock: E8, # of connection points: 2
#     Edge 42, Type (0, 0), BuildingBlock: E8, # of connection points: 2
#     Edge 43, Type (0, 0), BuildingBlock: E8, # of connection points: 2
#     Edge 44, Type (0, 0), BuildingBlock: E8, # of connection points: 2
#     Edge 45, Type (0, 0), BuildingBlock: E8, # of connection points: 2
#     Edge 46, Type (0, 0), BuildingBlock: E8, # of connection points: 2
#     Edge 47, Type (0, 0), BuildingBlock: E8, # of connection points: 2
# Relax obj value: 0.119
# Max RMSD: 0.324
# Mean RMSD: 0.297
data_pcb+N446+E8
_symmetry_space_group_name_H-M    P1
_symmetry_Int_Tables_number       1
_symmetry_cell_setting            triclinic
loop_
_symmetry_equiv_pos_as_xyz
'x, y, z'
_cell_length_a     51.126
_cell_length_b     51.126
_cell_length_c     42.894
_cell_angle_alpha  94.364
_cell_angle_beta   94.364
_cell_angle_gamma  96.471
loop_
_atom_site_label
_atom_site_type_symbol
_atom_site_fract_x
_atom_site_fract_y
_atom_site_fract_z
_atom_type_partial_charge
O0 O 0.90158 0.22042 0.86921 0.00000
O1 O 0.88640 0.19983 0.75731 0.00000
O2 O 0.88034 0.17269 0.89759 0.00000
O3 O 0.87657 0.11750 0.80463 0.00000
O4 O 0.82425 0.14024 0.78925 0.00000
O5 O 0.87088 0.18011 0.82406 0.00000
Zn6 Zn 0.89706 0.17569 0.85812 0.00000
Zn7 Zn 0.84084 0.19176 0.84263 0.00000
Zn8 Zn 0.89065 0.20795 0.80323 0.00000
Zn9 Zn 0.86287 0.14978 0.79431 0.00000
O10 O 0.89413 0.13418 0.85235 0.00000
O11 O 0.83052 0.22611 0.83396 0.00000
O12 O 0.84091 0.18667 0.88741 0.00000
O13 O 0.86936 0.15725 0.75115 0.00000
O14 O 0.85942 0.23132 0.79819 0.00000
O15 O 0.80908 0.16839 0.82426 0.00000
C16 C 0.91404 0.23716 0.85540 0.00000
C17 C 0.85732 0.17620 0.90440 0.00000
C18 C 0.84001 0.23724 0.81164 0.00000
C19 C 0.87558 0.17945 0.74130 0.00000
C20 C 0.88672 0.11562 0.83222 0.00000
C21 C 0.94129 0.18266 0.82713 0.00000
C22 C 0.80594 0.15030 0.80226 0.00000
O23 O 0.93484 0.17958 0.85461 0.00000
O24 O 0.92581 0.18489 0.80438 0.00000
O25 O 0.91425 0.23697 0.82549 0.00000
O26 O 0.77958 0.09842 0.13078 0.00000
O27 O 0.80017 0.11360 0.24269 0.00000
O28 O 0.82731 0.11966 0.10241 0.00000
O29 O 0.88250 0.12342 0.19537 0.00000
O30 O 0.85977 0.17574 0.21075 0.00000
O31 O 0.81989 0.12912 0.17594 0.00000
Zn32 Zn 0.82432 0.10293 0.14188 0.00000
Zn33 Zn 0.80824 0.15916 0.15737 0.00000
Zn34 Zn 0.79205 0.10935 0.19677 0.00000
Zn35 Zn 0.85023 0.13713 0.20569 0.00000
O36 O 0.86583 0.10587 0.14765 0.00000
O37 O 0.77390 0.16948 0.16604 0.00000
O38 O 0.81334 0.15909 0.11259 0.00000
O39 O 0.84276 0.13064 0.24884 0.00000
O40 O 0.76869 0.14058 0.20181 0.00000
O41 O 0.83162 0.19092 0.17574 0.00000
C42 C 0.76284 0.08595 0.14460 0.00000
C43 C 0.82380 0.14267 0.09559 0.00000
C44 C 0.76276 0.15999 0.18836 0.00000
C45 C 0.82055 0.12441 0.25870 0.00000
C46 C 0.88438 0.11328 0.16778 0.00000
C47 C 0.81734 0.05870 0.17287 0.00000
C48 C 0.84970 0.19406 0.19774 0.00000
O49 O 0.82042 0.06516 0.14538 0.00000
O50 O 0.81512 0.07419 0.19562 0.00000
O51 O 0.76303 0.08575 0.17450 0.00000
O52 O 0.86940 0.85921 0.19602 0.00000
O53 O 0.78011 0.83454 0.15036 0.00000
O54 O 0.90380 0.84402 0.14738 0.00000
O55 O 0.83637 0.83470 0.06563 0.00000
O56 O 0.82243 0.77997 0.08959 0.00000
O57 O 0.84109 0.82698 0.14138 0.00000
Zn58 Zn 0.86892 0.85651 0.14262 0.00000
Zn59 Zn 0.85643 0.79834 0.15900 0.00000
Zn60 Zn 0.81694 0.84273 0.16876 0.00000
Zn61 Zn 0.82237 0.81807 0.10082 0.00000
O62 O 0.87221 0.85568 0.09395 0.00000
O63 O 0.84321 0.78509 0.19682 0.00000
O64 O 0.89510 0.80311 0.16210 0.00000
O65 O 0.78419 0.81979 0.10064 0.00000
O66 O 0.81023 0.80985 0.19511 0.00000
O67 O 0.84749 0.76660 0.12913 0.00000
C68 C 0.85375 0.86913 0.21222 0.00000
C69 C 0.91035 0.82169 0.15319 0.00000
C70 C 0.82167 0.79158 0.20495 0.00000
C71 C 0.77124 0.82357 0.12400 0.00000
C72 C 0.85930 0.84756 0.06880 0.00000
C73 C 0.83864 0.89679 0.14361 0.00000
C74 C 0.83264 0.76249 0.10406 0.00000
O75 O 0.86279 0.89329 0.14568 0.00000
O76 O 0.82006 0.87910 0.14189 0.00000
O77 O 0.82860 0.86641 0.20602 0.00000
O78 O 0.18835 0.87435 0.15366 0.00000
O79 O 0.16315 0.84973 0.25441 0.00000
O80 O 0.14490 0.85062 0.10760 0.00000
O81 O 0.08480 0.83471 0.18312 0.00000
O82 O 0.11306 0.78527 0.19161 0.00000
O83 O 0.14921 0.83716 0.17961 0.00000
Zn84 Zn 0.14355 0.86445 0.15132 0.00000
Zn85 Zn 0.16562 0.81051 0.15716 0.00000
Zn86 Zn 0.17341 0.85787 0.21249 0.00000
Zn87 Zn 0.11814 0.82412 0.19867 0.00000
O88 O 0.10209 0.85680 0.14501 0.00000
O89 O 0.20071 0.80354 0.17248 0.00000
O90 O 0.16311 0.81312 0.11176 0.00000
O91 O 0.12231 0.82824 0.24473 0.00000
O92 O 0.20030 0.82969 0.21615 0.00000
O93 O 0.14508 0.77593 0.16111 0.00000
C94 C 0.20276 0.88727 0.17484 0.00000
C95 C 0.15162 0.82911 0.09622 0.00000
C96 C 0.20938 0.81240 0.19978 0.00000
C97 C 0.14318 0.83596 0.26197 0.00000
C98 C 0.08328 0.84625 0.15796 0.00000
C99 C 0.14330 0.90600 0.19452 0.00000
C100 C 0.12611 0.76945 0.17707 0.00000
O101 O 0.14261 0.90130 0.16507 0.00000
O102 O 0.14610 0.88964 0.21370 0.00000
O103 O 0.20081 0.88539 0.20425 0.00000
O104 O 0.10199 0.17535 0.17434 0.00000
O105 O 0.12276 0.15889 0.28206 0.00000
O106 O 0.11870 0.13093 0.13604 0.00000
O107 O 0.12496 0.07729 0.21947 0.00000
O108 O 0.17935 0.11008 0.23528 0.00000
O109 O 0.13303 0.14109 0.21051 0.00000
Zn110 Zn 0.10460 0.13134 0.17735 0.00000
Zn111 Zn 0.16251 0.15815 0.19183 0.00000
Zn112 Zn 0.11619 0.16569 0.23766 0.00000
Zn113 Zn 0.14109 0.11244 0.23453 0.00000
O114 O 0.10551 0.09020 0.17568 0.00000
O115 O 0.17529 0.19473 0.20583 0.00000
O116 O 0.15942 0.15244 0.14598 0.00000
O117 O 0.13768 0.11929 0.27961 0.00000
O118 O 0.14896 0.19505 0.24465 0.00000
O119 O 0.19395 0.14077 0.20400 0.00000
C120 C 0.09136 0.19006 0.19199 0.00000
C121 C 0.14142 0.13865 0.12822 0.00000
C122 C 0.16782 0.20445 0.23084 0.00000
C123 C 0.13335 0.14060 0.29382 0.00000
C124 C 0.11306 0.07317 0.19214 0.00000
C125 C 0.06281 0.13053 0.21274 0.00000
C126 C 0.19739 0.12344 0.22271 0.00000
O127 O 0.06739 0.12828 0.18416 0.00000
O128 O 0.07975 0.13593 0.23490 0.00000
O129 O 0.09297 0.19021 0.22200 0.00000
O130 O 0.82464 0.89801 0.82566 0.00000
O131 O 0.84111 0.87724 0.71794 0.00000
O132 O 0.86907 0.88130 0.86396 0.00000
O133 O 0.92270 0.87504 0.78053 0.00000
O134 O 0.88992 0.82065 0.76472 0.00000
O135 O 0.85891 0.86696 0.78949 0.00000
Zn136 Zn 0.86866 0.89539 0.82265 0.00000
Zn137 Zn 0.84185 0.83749 0.80817 0.00000
Zn138 Zn 0.83431 0.88381 0.76234 0.00000
Zn139 Zn 0.88756 0.85890 0.76547 0.00000
O140 O 0.90980 0.89449 0.82432 0.00000
O141 O 0.80527 0.82471 0.79417 0.00000
O142 O 0.84756 0.84058 0.85402 0.00000
O143 O 0.88070 0.86232 0.72038 0.00000
O144 O 0.80495 0.85104 0.75535 0.00000
O145 O 0.85923 0.80605 0.79600 0.00000
C146 C 0.80994 0.90864 0.80800 0.00000
C147 C 0.86135 0.85858 0.87177 0.00000
C148 C 0.79555 0.83217 0.76916 0.00000
C149 C 0.85939 0.86665 0.70618 0.00000
C150 C 0.92683 0.88693 0.80786 0.00000
C151 C 0.86947 0.93719 0.78726 0.00000
C152 C 0.87656 0.80261 0.77729 0.00000
O153 O 0.87172 0.93261 0.81584 0.00000
O154 O 0.86407 0.92025 0.76510 0.00000
O155 O 0.80979 0.90703 0.77800 0.00000
O156 O 0.12566 0.81164 0.84634 0.00000
O157 O 0.15028 0.83685 0.74559 0.00000
O158 O 0.14939 0.85510 0.89240 0.00000
O159 O 0.16530 0.91519 0.81688 0.00000
O160 O 0.21474 0.88694 0.80839 0.00000
O161 O 0.16285 0.85078 0.82039 0.00000
Zn162 Zn 0.13555 0.85644 0.84868 0.00000
Zn163 Zn 0.18949 0.83438 0.84284 0.00000
Zn164 Zn 0.14213 0.82659 0.78751 0.00000
Zn165 Zn 0.17589 0.88185 0.80133 0.00000
O166 O 0.14320 0.89791 0.85499 0.00000
O167 O 0.19646 0.79928 0.82752 0.00000
O168 O 0.18689 0.83688 0.88824 0.00000
O169 O 0.17176 0.87768 0.75527 0.00000
O170 O 0.17032 0.79970 0.78385 0.00000
O171 O 0.22407 0.85491 0.83889 0.00000
C172 C 0.11273 0.79724 0.82516 0.00000
C173 C 0.17089 0.84837 0.90378 0.00000
C174 C 0.18760 0.79061 0.80022 0.00000
C175 C 0.16404 0.85682 0.73803 0.00000
C176 C 0.15375 0.91671 0.84204 0.00000
C177 C 0.09400 0.85669 0.80548 0.00000
C178 C 0.23056 0.87388 0.82293 0.00000
O179 O 0.09871 0.85739 0.83493 0.00000
O180 O 0.11036 0.85389 0.78629 0.00000
O181 O 0.11461 0.79919 0.79575 0.00000
O182 O 0.14079 0.13060 0.80398 0.00000
O183 O 0.16546 0.21989 0.84964 0.00000
O184 O 0.15598 0.09619 0.85261 0.00000
O185 O 0.16530 0.16363 0.93436 0.00000
O186 O 0.22003 0.17757 0.91040 0.00000
O187 O 0.17302 0.15891 0.85862 0.00000
Zn188 Zn 0.14349 0.13108 0.85737 0.00000
Zn189 Zn 0.20166 0.14357 0.84100 0.00000
Zn190 Zn 0.15727 0.18306 0.83124 0.00000
Zn191 Zn 0.18193 0.17762 0.89918 0.00000
O192 O 0.14432 0.12779 0.90605 0.00000
O193 O 0.21491 0.15679 0.80318 0.00000
O194 O 0.19689 0.10490 0.83790 0.00000
O195 O 0.18021 0.21581 0.89936 0.00000
O196 O 0.19015 0.18977 0.80489 0.00000
O197 O 0.23340 0.15251 0.87087 0.00000
C198 C 0.13087 0.14625 0.78778 0.00000
C199 C 0.17831 0.08965 0.84680 0.00000
C200 C 0.20842 0.17833 0.79505 0.00000
C201 C 0.17643 0.22876 0.87599 0.00000
C202 C 0.15245 0.14070 0.93119 0.00000
C203 C 0.10321 0.16136 0.85639 0.00000
C204 C 0.23752 0.16736 0.89593 0.00000
O205 O 0.10671 0.13721 0.85432 0.00000
O206 O 0.12090 0.17994 0.85810 0.00000
O207 O 0.13359 0.17140 0.79398 0.00000
O208 O 0.64079 0.63060 0.30398 0.00000
O209 O 0.66546 0.71989 0.34964 0.00000
O210 O 0.65598 0.59619 0.35262 0.00000
O211 O 0.66530 0.66363 0.43437 0.00000
O212 O 0.72003 0.67757 0.41041 0.00000
O213 O 0.67302 0.65891 0.35862 0.00000
Zn214 Zn 0.64349 0.63108 0.35738 0.00000
Zn215 Zn 0.70166 0.64357 0.34100 0.00000
Zn216 Zn 0.65727 0.68306 0.33124 0.00000
Zn217 Zn 0.68193 0.67762 0.39918 0.00000
O218 O 0.64432 0.62779 0.40605 0.00000
O219 O 0.71491 0.65679 0.30318 0.00000
O220 O 0.69689 0.60490 0.33790 0.00000
O221 O 0.68021 0.71581 0.39936 0.00000
O222 O 0.69015 0.68977 0.30489 0.00000
O223 O 0.73340 0.65251 0.37087 0.00000
C224 C 0.63087 0.64625 0.28778 0.00000
C225 C 0.67831 0.58965 0.34681 0.00000
C226 C 0.70842 0.67833 0.29505 0.00000
C227 C 0.67643 0.72876 0.37600 0.00000
C228 C 0.65245 0.64070 0.43120 0.00000
C229 C 0.60321 0.66136 0.35639 0.00000
C230 C 0.73751 0.66736 0.39594 0.00000
O231 O 0.60671 0.63721 0.35432 0.00000
O232 O 0.62090 0.67994 0.35811 0.00000
O233 O 0.63359 0.67140 0.29398 0.00000
O234 O 0.40158 0.72042 0.36922 0.00000
O235 O 0.38640 0.69983 0.25731 0.00000
O236 O 0.38034 0.67269 0.39759 0.00000
O237 O 0.37658 0.61750 0.30463 0.00000
O238 O 0.32426 0.64023 0.28925 0.00000
O239 O 0.37088 0.68011 0.32406 0.00000
Zn240 Zn 0.39707 0.67568 0.35812 0.00000
Zn241 Zn 0.34084 0.69176 0.34263 0.00000
Zn242 Zn 0.39065 0.70795 0.30323 0.00000
Zn243 Zn 0.36287 0.64977 0.29431 0.00000
O244 O 0.39413 0.63417 0.35235 0.00000
O245 O 0.33052 0.72610 0.33396 0.00000
O246 O 0.34091 0.68666 0.38741 0.00000
O247 O 0.36936 0.65724 0.25116 0.00000
O248 O 0.35942 0.73131 0.29819 0.00000
O249 O 0.30908 0.66838 0.32426 0.00000
C250 C 0.41405 0.73716 0.35540 0.00000
C251 C 0.35733 0.67620 0.40440 0.00000
C252 C 0.34001 0.73724 0.31164 0.00000
C253 C 0.37559 0.67945 0.24130 0.00000
C254 C 0.38672 0.61562 0.33222 0.00000
C255 C 0.44130 0.68266 0.32713 0.00000
C256 C 0.30594 0.65030 0.30226 0.00000
O257 O 0.43484 0.67958 0.35462 0.00000
O258 O 0.42581 0.68488 0.30438 0.00000
O259 O 0.41425 0.73697 0.32549 0.00000
O260 O 0.32465 0.39801 0.32566 0.00000
O261 O 0.34111 0.37724 0.21794 0.00000
O262 O 0.36907 0.38130 0.36396 0.00000
O263 O 0.42271 0.37504 0.28053 0.00000
O264 O 0.38992 0.32065 0.26472 0.00000
O265 O 0.35891 0.36697 0.28949 0.00000
Zn266 Zn 0.36866 0.39539 0.32265 0.00000
Zn267 Zn 0.34185 0.33749 0.30817 0.00000
Zn268 Zn 0.33431 0.38381 0.26234 0.00000
Zn269 Zn 0.38756 0.35891 0.26547 0.00000
O270 O 0.40980 0.39449 0.32432 0.00000
O271 O 0.30527 0.32471 0.29417 0.00000
O272 O 0.34756 0.34058 0.35402 0.00000
O273 O 0.38071 0.36232 0.22038 0.00000
O274 O 0.30495 0.35104 0.25535 0.00000
O275 O 0.35923 0.30605 0.29600 0.00000
C276 C 0.30994 0.40864 0.30801 0.00000
C277 C 0.36135 0.35858 0.37178 0.00000
C278 C 0.29555 0.33218 0.26916 0.00000
C279 C 0.35940 0.36665 0.20618 0.00000
C280 C 0.42683 0.38694 0.30786 0.00000
C281 C 0.36947 0.43719 0.28726 0.00000
C282 C 0.37656 0.30261 0.27729 0.00000
O283 O 0.37172 0.43261 0.31584 0.00000
O284 O 0.36407 0.42025 0.26510 0.00000
O285 O 0.30980 0.40703 0.27800 0.00000
O286 O 0.60199 0.67535 0.67434 0.00000
O287 O 0.62276 0.65889 0.78206 0.00000
O288 O 0.61870 0.63093 0.63604 0.00000
O289 O 0.62497 0.57729 0.71947 0.00000
O290 O 0.67935 0.61008 0.73528 0.00000
O291 O 0.63304 0.64109 0.71051 0.00000
Zn292 Zn 0.60461 0.63134 0.67735 0.00000
Zn293 Zn 0.66251 0.65815 0.69183 0.00000
Zn294 Zn 0.61620 0.66569 0.73766 0.00000
Zn295 Zn 0.64110 0.61244 0.73453 0.00000
O296 O 0.60551 0.59020 0.67568 0.00000
O297 O 0.67529 0.69473 0.70583 0.00000
O298 O 0.65942 0.65244 0.64598 0.00000
O299 O 0.63769 0.61929 0.77962 0.00000
O300 O 0.64896 0.69505 0.74465 0.00000
O301 O 0.69395 0.64077 0.70400 0.00000
C302 C 0.59136 0.69006 0.69200 0.00000
C303 C 0.64143 0.63865 0.62823 0.00000
C304 C 0.66783 0.70445 0.73084 0.00000
C305 C 0.63335 0.64060 0.79382 0.00000
C306 C 0.61307 0.57317 0.69214 0.00000
C307 C 0.56281 0.63053 0.71274 0.00000
C308 C 0.69739 0.62344 0.72271 0.00000
O309 O 0.56740 0.62828 0.68416 0.00000
O310 O 0.57976 0.63593 0.73490 0.00000
O311 O 0.59298 0.69021 0.72200 0.00000
O312 O 0.27958 0.59842 0.63079 0.00000
O313 O 0.30016 0.61360 0.74269 0.00000
O314 O 0.32731 0.61966 0.60241 0.00000
O315 O 0.38249 0.62343 0.69537 0.00000
O316 O 0.35976 0.67575 0.71075 0.00000
O317 O 0.31988 0.62913 0.67594 0.00000
Zn318 Zn 0.32431 0.60294 0.64188 0.00000
Zn319 Zn 0.30824 0.65916 0.65737 0.00000
Zn320 Zn 0.29204 0.60936 0.69677 0.00000
Zn321 Zn 0.35022 0.63713 0.70569 0.00000
O322 O 0.36582 0.60587 0.64765 0.00000
O323 O 0.27389 0.66948 0.66604 0.00000
O324 O 0.31333 0.65910 0.61259 0.00000
O325 O 0.34275 0.63064 0.74885 0.00000
O326 O 0.26868 0.64058 0.70181 0.00000
O327 O 0.33161 0.69092 0.67574 0.00000
C328 C 0.26284 0.58596 0.64460 0.00000
C329 C 0.32380 0.64268 0.59560 0.00000
C330 C 0.26276 0.65999 0.68836 0.00000
C331 C 0.32054 0.62442 0.75870 0.00000
C332 C 0.38437 0.61329 0.66778 0.00000
C333 C 0.31733 0.55871 0.67287 0.00000
C334 C 0.34970 0.69407 0.69774 0.00000
O335 O 0.32042 0.56517 0.64539 0.00000
O336 O 0.31511 0.57419 0.69562 0.00000
O337 O 0.26303 0.58576 0.67451 0.00000
O338 O 0.36940 0.35921 0.69602 0.00000
O339 O 0.28011 0.33454 0.65036 0.00000
O340 O 0.40381 0.34402 0.64739 0.00000
O341 O 0.33637 0.33469 0.56564 0.00000
O342 O 0.32244 0.27997 0.58960 0.00000
O343 O 0.34109 0.32698 0.64138 0.00000
Zn344 Zn 0.36892 0.35651 0.64262 0.00000
Zn345 Zn 0.35643 0.29834 0.65900 0.00000
Zn346 Zn 0.31694 0.34272 0.66876 0.00000
Zn347 Zn 0.32238 0.31807 0.60082 0.00000
O348 O 0.37222 0.35568 0.59395 0.00000
O349 O 0.34321 0.28509 0.69682 0.00000
O350 O 0.39510 0.30311 0.66210 0.00000
O351 O 0.28419 0.31979 0.60064 0.00000
O352 O 0.31023 0.30984 0.69511 0.00000
O353 O 0.34749 0.26660 0.62913 0.00000
C354 C 0.35375 0.36913 0.71222 0.00000
C355 C 0.41035 0.32169 0.65320 0.00000
C356 C 0.32167 0.29158 0.70495 0.00000
C357 C 0.27124 0.32357 0.62401 0.00000
C358 C 0.35930 0.34755 0.56881 0.00000
C359 C 0.33864 0.39679 0.64361 0.00000
C360 C 0.33264 0.26248 0.60407 0.00000
O361 O 0.36279 0.39329 0.64568 0.00000
O362 O 0.32006 0.37910 0.64190 0.00000
O363 O 0.32860 0.36641 0.70602 0.00000
O364 O 0.68836 0.37435 0.65366 0.00000
O365 O 0.66315 0.34972 0.75441 0.00000
O366 O 0.64490 0.35061 0.60760 0.00000
O367 O 0.58481 0.33471 0.68312 0.00000
O368 O 0.61306 0.28527 0.69161 0.00000
O369 O 0.64922 0.33716 0.67961 0.00000
Zn370 Zn 0.64355 0.36445 0.65132 0.00000
Zn371 Zn 0.66562 0.31051 0.65716 0.00000
Zn372 Zn 0.67341 0.35787 0.71249 0.00000
Zn373 Zn 0.61815 0.32412 0.69867 0.00000
O374 O 0.60209 0.35680 0.64501 0.00000
O375 O 0.70071 0.30354 0.67248 0.00000
O376 O 0.66312 0.31312 0.61176 0.00000
O377 O 0.62231 0.32824 0.74473 0.00000
O378 O 0.70030 0.32969 0.71615 0.00000
O379 O 0.64509 0.27593 0.66111 0.00000
C380 C 0.70276 0.38727 0.67484 0.00000
C381 C 0.65163 0.32911 0.59622 0.00000
C382 C 0.70938 0.31240 0.69978 0.00000
C383 C 0.64318 0.33596 0.76197 0.00000
C384 C 0.58329 0.34625 0.65796 0.00000
C385 C 0.64331 0.40600 0.69452 0.00000
C386 C 0.62612 0.26945 0.67707 0.00000
O387 O 0.64261 0.40130 0.66507 0.00000
O388 O 0.64611 0.38964 0.71371 0.00000
O389 O 0.70081 0.38539 0.70425 0.00000
O390 O 0.62565 0.31165 0.34634 0.00000
O391 O 0.65027 0.33685 0.24559 0.00000
O392 O 0.64938 0.35510 0.39240 0.00000
O393 O 0.66529 0.41520 0.31689 0.00000
O394 O 0.71473 0.38694 0.30839 0.00000
O395 O 0.66284 0.35079 0.32039 0.00000
Zn396 Zn 0.63555 0.35645 0.34868 0.00000
Zn397 Zn 0.68949 0.33438 0.34284 0.00000
Zn398 Zn 0.64213 0.32659 0.28751 0.00000
Zn399 Zn 0.67588 0.38186 0.30133 0.00000
O400 O 0.64320 0.39791 0.35499 0.00000
O401 O 0.69646 0.29929 0.32752 0.00000
O402 O 0.68688 0.33689 0.38825 0.00000
O403 O 0.67176 0.37769 0.25527 0.00000
O404 O 0.67031 0.29970 0.28385 0.00000
O405 O 0.72407 0.35492 0.33889 0.00000
C406 C 0.61273 0.29724 0.32516 0.00000
C407 C 0.67089 0.34838 0.40378 0.00000
C408 C 0.68760 0.29062 0.30022 0.00000
C409 C 0.66404 0.35682 0.23803 0.00000
C410 C 0.65375 0.41672 0.34204 0.00000
C411 C 0.59400 0.35670 0.30548 0.00000
C412 C 0.73055 0.37389 0.32293 0.00000
O413 O 0.59870 0.35739 0.33493 0.00000
O414 O 0.61036 0.35390 0.28630 0.00000
O415 O 0.61461 0.29919 0.29575 0.00000
C416 C 0.76503 0.27913 0.76646 0.00000
C417 C 0.78756 0.27402 0.74577 0.00000
N418 N 0.78554 0.28025 0.71116 0.00000
C419 C 0.76097 0.29158 0.69724 0.00000
C420 C 0.73843 0.29668 0.71793 0.00000
N421 N 0.74046 0.29045 0.75254 0.00000
N422 N 0.76705 0.27290 0.80107 0.00000
C423 C 0.79162 0.26157 0.81499 0.00000
C424 C 0.81416 0.25647 0.79430 0.00000
N425 N 0.81213 0.26270 0.75969 0.00000
H426 H 0.75947 0.29618 0.67162 0.00000
H427 H 0.79312 0.25697 0.84060 0.00000
C428 C 0.70848 0.22298 0.23936 0.00000
C429 C 0.73837 0.22443 0.24841 0.00000
N430 N 0.75195 0.24563 0.27372 0.00000
C431 C 0.73565 0.26537 0.28997 0.00000
C432 C 0.70575 0.26392 0.28093 0.00000
N433 N 0.69217 0.24272 0.25562 0.00000
N434 N 0.69490 0.20178 0.21406 0.00000
C435 C 0.71121 0.18204 0.19780 0.00000
C436 C 0.74110 0.18349 0.20685 0.00000
N437 N 0.75469 0.20469 0.23215 0.00000
H438 H 0.74570 0.28106 0.30871 0.00000
H439 H 0.70115 0.16635 0.17906 0.00000
C440 C 0.77889 0.72654 0.24614 0.00000
C441 C 0.75447 0.74009 0.25386 0.00000
N442 N 0.75322 0.76918 0.24746 0.00000
C443 C 0.77639 0.78471 0.23334 0.00000
C444 C 0.80081 0.77117 0.22562 0.00000
N445 N 0.80207 0.74208 0.23202 0.00000
N446 N 0.78015 0.69746 0.25254 0.00000
C447 C 0.75698 0.68192 0.26666 0.00000
C448 C 0.73255 0.69547 0.27438 0.00000
N449 N 0.73130 0.72455 0.26798 0.00000
H450 H 0.77546 0.80624 0.22860 0.00000
H451 H 0.75791 0.66039 0.27140 0.00000
C452 C 0.28256 0.78432 0.24330 0.00000
C453 C 0.27002 0.76883 0.26892 0.00000
N454 N 0.23997 0.76675 0.27132 0.00000
C455 C 0.22246 0.78017 0.24809 0.00000
C456 C 0.23500 0.79566 0.22247 0.00000
N457 N 0.26505 0.79774 0.22007 0.00000
N458 N 0.31262 0.78640 0.24091 0.00000
C459 C 0.33013 0.77298 0.26414 0.00000
C460 C 0.31759 0.75749 0.28976 0.00000
N461 N 0.28754 0.75541 0.29216 0.00000
H462 H 0.20021 0.77863 0.24987 0.00000
H463 H 0.35238 0.77452 0.26236 0.00000
C464 C 0.22431 0.28300 0.25373 0.00000
C465 C 0.23581 0.25688 0.24627 0.00000
N466 N 0.26584 0.25686 0.24513 0.00000
C467 C 0.28437 0.28295 0.25144 0.00000
C468 C 0.27287 0.30907 0.25889 0.00000
N469 N 0.24284 0.30909 0.26003 0.00000
N470 N 0.19428 0.28302 0.25487 0.00000
C471 C 0.17575 0.25693 0.24856 0.00000
C472 C 0.18725 0.23081 0.24111 0.00000
N473 N 0.21728 0.23079 0.23997 0.00000
H474 H 0.30660 0.28293 0.25059 0.00000
H475 H 0.15352 0.25695 0.24941 0.00000
C476 C 0.72422 0.78317 0.75151 0.00000
C477 C 0.73590 0.75670 0.74849 0.00000
N478 N 0.76607 0.75640 0.75089 0.00000
C479 C 0.78456 0.78256 0.75631 0.00000
C480 C 0.77289 0.80903 0.75932 0.00000
N481 N 0.74272 0.80934 0.75692 0.00000
N482 N 0.69405 0.78348 0.74911 0.00000
C483 C 0.67556 0.75732 0.74369 0.00000
C484 C 0.68723 0.73084 0.74068 0.00000
N485 N 0.71740 0.73054 0.74308 0.00000
H486 H 0.80690 0.78234 0.75808 0.00000
H487 H 0.65323 0.75754 0.74191 0.00000
C488 C 0.23597 0.72971 0.73694 0.00000
C489 C 0.21088 0.71770 0.75083 0.00000
N490 N 0.20114 0.68806 0.74385 0.00000
C491 C 0.21648 0.67044 0.72298 0.00000
C492 C 0.24157 0.68246 0.70909 0.00000
N493 N 0.25131 0.71209 0.71607 0.00000
N494 N 0.24571 0.75935 0.74393 0.00000
C495 C 0.23037 0.77697 0.76479 0.00000
C496 C 0.20528 0.76495 0.77868 0.00000
N497 N 0.19554 0.73532 0.77170 0.00000
H498 H 0.20927 0.64850 0.71781 0.00000
H499 H 0.23758 0.79891 0.76996 0.00000
C500 C 0.27259 0.22018 0.75115 0.00000
C501 C 0.26078 0.24645 0.74885 0.00000
N502 N 0.23307 0.24917 0.75959 0.00000
C503 C 0.21719 0.22563 0.77262 0.00000
C504 C 0.22900 0.19936 0.77491 0.00000
N505 N 0.25671 0.19664 0.76418 0.00000
N506 N 0.30030 0.21746 0.74041 0.00000
C507 C 0.31618 0.24100 0.72738 0.00000
C508 C 0.30437 0.26727 0.72509 0.00000
N509 N 0.27666 0.26999 0.73582 0.00000
H510 H 0.19668 0.22765 0.78057 0.00000
H511 H 0.33669 0.23898 0.71943 0.00000
C512 C 0.89368 0.03284 0.80478 0.00000
C513 C 0.86711 0.02044 0.81486 0.00000
N514 N 0.84935 0.03780 0.83255 0.00000
C515 C 0.85816 0.06756 0.84014 0.00000
C516 C 0.88473 0.07996 0.83006 0.00000
N517 N 0.90249 0.06260 0.81237 0.00000
N518 N 0.91144 0.01548 0.78709 0.00000
C519 C 0.90263 0.98572 0.77950 0.00000
C520 C 0.87606 0.97332 0.78959 0.00000
N521 N 0.85830 0.99068 0.80727 0.00000
H522 H 0.84501 0.08041 0.85323 0.00000
H523 H 0.91578 0.97287 0.76641 0.00000
C524 C 0.97552 0.12654 0.20690 0.00000
C525 C 0.97120 0.11267 0.17346 0.00000
N526 N 0.99502 0.10505 0.15636 0.00000
C527 C 0.02315 0.11131 0.17270 0.00000
C528 C 0.02747 0.12518 0.20615 0.00000
N529 N 0.00365 0.13280 0.22325 0.00000
N530 N 0.95170 0.13416 0.22399 0.00000
C531 C 0.92357 0.12790 0.20765 0.00000
C532 C 0.91925 0.11403 0.17420 0.00000
N533 N 0.94306 0.10641 0.15711 0.00000
H534 H 0.04078 0.10567 0.16005 0.00000
H535 H 0.90593 0.13354 0.22030 0.00000
C536 C 0.81204 0.96919 0.15609 0.00000
C537 C 0.83913 0.98580 0.16381 0.00000
N538 N 0.86460 0.97234 0.16370 0.00000
C539 C 0.86298 0.94227 0.15587 0.00000
C540 C 0.83589 0.92566 0.14814 0.00000
N541 N 0.81042 0.93912 0.14825 0.00000
N542 N 0.78657 0.98265 0.15620 0.00000
C543 C 0.78819 0.01272 0.16403 0.00000
C544 C 0.81529 0.02933 0.17176 0.00000
N545 N 0.84076 0.01587 0.17165 0.00000
H546 H 0.88183 0.93231 0.15579 0.00000
H547 H 0.76934 0.02268 0.16411 0.00000
C548 C 0.99315 0.82162 0.15809 0.00000
C549 C 0.00010 0.84765 0.14307 0.00000
N550 N 0.97791 0.86328 0.13094 0.00000
C551 C 0.94881 0.85287 0.13382 0.00000
C552 C 0.94188 0.82683 0.14885 0.00000
N553 N 0.96405 0.81120 0.16098 0.00000
N554 N 0.01532 0.80599 0.17023 0.00000
C555 C 0.04442 0.81640 0.16734 0.00000
C556 C 0.05135 0.84244 0.15232 0.00000
N557 N 0.02918 0.85807 0.14018 0.00000
H558 H 0.93240 0.86443 0.12484 0.00000
H559 H 0.06084 0.80484 0.17633 0.00000
C560 C 0.13854 0.99990 0.19570 0.00000
C561 C 0.11291 0.97969 0.19122 0.00000
N562 N 0.08610 0.99016 0.18477 0.00000
C563 C 0.08492 0.01996 0.18281 0.00000
C564 C 0.11055 0.03930 0.18729 0.00000
N565 N 0.13736 0.02883 0.19374 0.00000
N566 N 0.16535 0.98855 0.20215 0.00000
C567 C 0.16652 0.95875 0.20411 0.00000
C568 C 0.14089 0.93942 0.19963 0.00000
N569 N 0.11409 0.94989 0.19319 0.00000
H570 H 0.06508 0.02771 0.17804 0.00000
H571 H 0.18637 0.95100 0.20888 0.00000
C572 C 0.00169 0.86798 0.79204 0.00000
C573 C 0.01959 0.88056 0.82104 0.00000
N574 N 0.00799 0.89694 0.84708 0.00000
C575 C 0.97847 0.90074 0.84412 0.00000
C576 C 0.96056 0.88816 0.81511 0.00000
N577 N 0.97217 0.87179 0.78907 0.00000
N578 N 0.01330 0.85161 0.76600 0.00000
C579 C 0.04281 0.84780 0.76896 0.00000
C580 C 0.06072 0.86038 0.79797 0.00000
N581 N 0.04911 0.87676 0.82401 0.00000
H582 H 0.96988 0.91286 0.86339 0.00000
H583 H 0.05141 0.83568 0.74968 0.00000
C584 C 0.14722 0.84227 0.99101 0.00000
C585 C 0.17319 0.83732 0.00899 0.00000
N586 N 0.19885 0.83827 0.99227 0.00000
C587 C 0.19854 0.84417 0.95758 0.00000
C588 C 0.17256 0.84912 0.93960 0.00000
N589 N 0.14690 0.84817 0.95632 0.00000
N590 N 0.12156 0.84132 0.00773 0.00000
C591 C 0.12187 0.83542 0.04242 0.00000
C592 C 0.14785 0.83047 0.06040 0.00000
N593 N 0.17350 0.83142 0.04368 0.00000
H594 H 0.21753 0.84487 0.94520 0.00000
H595 H 0.10288 0.83472 0.05480 0.00000
C596 C 0.85471 0.15476 0.00872 0.00000
C597 C 0.82915 0.16138 0.99128 0.00000
N598 N 0.80376 0.16170 0.00838 0.00000
C599 C 0.80393 0.15540 0.04294 0.00000
C600 C 0.82949 0.14878 0.06038 0.00000
N601 N 0.85488 0.14847 0.04328 0.00000
N602 N 0.88010 0.15445 0.99161 0.00000
C603 C 0.87993 0.16074 0.95706 0.00000
C604 C 0.85436 0.16736 0.93961 0.00000
N605 N 0.82897 0.16768 0.95672 0.00000
H606 H 0.78514 0.15563 0.05560 0.00000
H607 H 0.89872 0.16051 0.94440 0.00000
C608 C 0.88017 0.85660 0.96645 0.00000
C609 C 0.85134 0.85278 0.97494 0.00000
N610 N 0.82851 0.85077 0.94897 0.00000
C611 C 0.83452 0.85258 0.91450 0.00000
C612 C 0.86335 0.85639 0.90601 0.00000
N613 N 0.88618 0.85840 0.93199 0.00000
N614 N 0.90300 0.85861 0.99242 0.00000
C615 C 0.89700 0.85680 0.02689 0.00000
C616 C 0.86816 0.85298 0.03538 0.00000
N617 N 0.84533 0.85098 0.00941 0.00000
H618 H 0.81762 0.85109 0.89528 0.00000
H619 H 0.91389 0.85829 0.04611 0.00000
C620 C 0.13114 0.13322 0.02144 0.00000
C621 C 0.15948 0.13526 0.03716 0.00000
N622 N 0.18316 0.13710 0.01697 0.00000
C623 C 0.17850 0.13690 0.98105 0.00000
C624 C 0.15016 0.13486 0.96533 0.00000
N625 N 0.12648 0.13302 0.98552 0.00000
N626 N 0.10746 0.13139 0.04164 0.00000
C627 C 0.11212 0.13159 0.07755 0.00000
C628 C 0.14046 0.13362 0.09328 0.00000
N629 N 0.16414 0.13546 0.07308 0.00000
H630 H 0.19604 0.13826 0.96610 0.00000
H631 H 0.09458 0.13023 0.09250 0.00000
C632 C 0.65948 0.63516 0.53715 0.00000
C633 C 0.63115 0.63332 0.52145 0.00000
N634 N 0.60747 0.63165 0.54167 0.00000
C635 C 0.61213 0.63181 0.57758 0.00000
C636 C 0.64046 0.63364 0.59328 0.00000
N637 N 0.66414 0.63532 0.57307 0.00000
N638 N 0.68315 0.63684 0.51694 0.00000
C639 C 0.67850 0.63668 0.48103 0.00000
C640 C 0.65016 0.63484 0.46533 0.00000
N641 N 0.62649 0.63316 0.48554 0.00000
H642 H 0.59461 0.63056 0.59254 0.00000
H643 H 0.69602 0.63792 0.46607 0.00000
C644 C 0.33104 0.66571 0.49305 0.00000
C645 C 0.35281 0.65043 0.50696 0.00000
N646 N 0.37518 0.64319 0.48702 0.00000
C647 C 0.37577 0.65123 0.45318 0.00000
C648 C 0.35399 0.66651 0.43927 0.00000
N649 N 0.33163 0.67375 0.45920 0.00000
N650 N 0.30867 0.67295 0.51298 0.00000
C651 C 0.30808 0.66492 0.54682 0.00000
C652 C 0.32986 0.64964 0.56073 0.00000
N653 N 0.35222 0.64240 0.54080 0.00000
H654 H 0.39233 0.64587 0.43843 0.00000
H655 H 0.29153 0.67028 0.56157 0.00000
C656 C 0.38015 0.35566 0.46632 0.00000
C657 C 0.35137 0.35372 0.47507 0.00000
N658 N 0.32859 0.35320 0.44930 0.00000
C659 C 0.33459 0.35463 0.41479 0.00000
C660 C 0.36336 0.35658 0.40604 0.00000
N661 N 0.38614 0.35709 0.43181 0.00000
N662 N 0.40293 0.35618 0.49209 0.00000
C663 C 0.39693 0.35474 0.52661 0.00000
C664 C 0.36816 0.35280 0.53536 0.00000
N665 N 0.34538 0.35229 0.50959 0.00000
H666 H 0.31772 0.35425 0.39571 0.00000
H667 H 0.41380 0.35513 0.54568 0.00000
C668 C 0.48053 0.62912 0.67966 0.00000
C669 C 0.46619 0.61010 0.70070 0.00000
N670 N 0.48199 0.59837 0.72714 0.00000
C671 C 0.51214 0.60566 0.73253 0.00000
C672 C 0.52649 0.62468 0.71148 0.00000
N673 N 0.51068 0.63641 0.68505 0.00000
N674 N 0.46472 0.64085 0.65322 0.00000
C675 C 0.43457 0.63356 0.64783 0.00000
C676 C 0.42023 0.61453 0.66887 0.00000
N677 N 0.43603 0.60281 0.69531 0.00000
H678 H 0.52384 0.59698 0.75210 0.00000
H679 H 0.42287 0.64224 0.62826 0.00000
C680 C 0.31069 0.47873 0.65815 0.00000
C681 C 0.34048 0.47626 0.66176 0.00000
N682 N 0.36047 0.50101 0.67092 0.00000
C683 C 0.35065 0.52824 0.67648 0.00000
C684 C 0.32085 0.53071 0.67287 0.00000
N685 N 0.30087 0.50596 0.66371 0.00000
N686 N 0.29070 0.45398 0.64899 0.00000
C687 C 0.30052 0.42675 0.64343 0.00000
C688 C 0.33032 0.42428 0.64704 0.00000
N689 N 0.35030 0.44903 0.65620 0.00000
H690 H 0.36545 0.54656 0.68326 0.00000
H691 H 0.28572 0.40843 0.63665 0.00000
C692 C 0.49059 0.34775 0.65007 0.00000
C693 C 0.50265 0.32152 0.65111 0.00000
N694 N 0.48458 0.29539 0.65180 0.00000
C695 C 0.45445 0.29548 0.65146 0.00000
C696 C 0.44239 0.32171 0.65042 0.00000
N697 N 0.46046 0.34784 0.64972 0.00000
N698 N 0.50866 0.37388 0.64937 0.00000
C699 C 0.53879 0.37379 0.64971 0.00000
C700 C 0.55085 0.34756 0.65075 0.00000
N701 N 0.53278 0.32142 0.65145 0.00000
H702 H 0.44107 0.27614 0.65198 0.00000
H703 H 0.55217 0.39313 0.64919 0.00000
C704 C 0.61066 0.48892 0.69014 0.00000
C705 C 0.64079 0.48980 0.69678 0.00000
N706 N 0.65853 0.51642 0.69922 0.00000
C707 C 0.64615 0.54216 0.69502 0.00000
C708 C 0.61602 0.54128 0.68838 0.00000
N709 N 0.59827 0.51466 0.68594 0.00000
N710 N 0.59292 0.46230 0.68770 0.00000
C711 C 0.60531 0.43656 0.69190 0.00000
C712 C 0.63544 0.43744 0.69854 0.00000
N713 N 0.65318 0.46406 0.70098 0.00000
H714 H 0.65928 0.56186 0.69683 0.00000
H715 H 0.59217 0.41686 0.69010 0.00000
C716 C 0.51006 0.36153 0.29560 0.00000
C717 C 0.51123 0.38703 0.31748 0.00000
N718 N 0.53808 0.40107 0.33209 0.00000
C719 C 0.56376 0.38961 0.32483 0.00000
C720 C 0.56259 0.36411 0.30295 0.00000
N721 N 0.53574 0.35007 0.28833 0.00000
N722 N 0.48320 0.34748 0.28099 0.00000
C723 C 0.45752 0.35894 0.28825 0.00000
C724 C 0.45870 0.38444 0.31013 0.00000
N725 N 0.48555 0.39848 0.32474 0.00000
H726 H 0.58364 0.40001 0.33565 0.00000
H727 H 0.43765 0.34854 0.27743 0.00000
C728 C 0.67856 0.49754 0.35156 0.00000
C729 C 0.65217 0.50922 0.34727 0.00000
N730 N 0.62591 0.49085 0.34370 0.00000
C731 C 0.62603 0.46079 0.34444 0.00000
C732 C 0.65243 0.44911 0.34873 0.00000
N733 N 0.67869 0.46749 0.35230 0.00000
N734 N 0.70482 0.51592 0.35513 0.00000
C735 C 0.70470 0.54597 0.35440 0.00000
C736 C 0.67830 0.55765 0.35010 0.00000
N737 N 0.65204 0.53928 0.34654 0.00000
H738 H 0.60659 0.44719 0.34180 0.00000
H739 H 0.72414 0.55958 0.35704 0.00000
C740 C 0.51754 0.66804 0.32351 0.00000
C741 C 0.52747 0.68079 0.35659 0.00000
N742 N 0.50867 0.69479 0.37675 0.00000
C743 C 0.47994 0.69606 0.36381 0.00000
C744 C 0.47002 0.68331 0.33072 0.00000
N745 N 0.48882 0.66930 0.31057 0.00000
N746 N 0.53635 0.65403 0.30335 0.00000
C747 C 0.56507 0.65277 0.31629 0.00000
C748 C 0.57500 0.66552 0.34938 0.00000
N749 N 0.55619 0.67953 0.36953 0.00000
H750 H 0.46602 0.70643 0.37873 0.00000
H751 H 0.57899 0.64240 0.30137 0.00000
C752 C 0.36559 0.52151 0.30896 0.00000
C753 C 0.39520 0.53177 0.31069 0.00000
N754 N 0.41540 0.51270 0.30244 0.00000
C755 C 0.40598 0.48337 0.29247 0.00000
C756 C 0.37636 0.47311 0.29074 0.00000
N757 N 0.35616 0.49218 0.29899 0.00000
N758 N 0.34539 0.54058 0.31720 0.00000
C759 C 0.35481 0.56991 0.32717 0.00000
C760 C 0.38443 0.58017 0.32890 0.00000
N761 N 0.40463 0.56110 0.32066 0.00000
H762 H 0.42093 0.46926 0.28637 0.00000
H763 H 0.33986 0.58403 0.33327 0.00000
C764 C 0.67348 0.33983 0.50978 0.00000
C765 C 0.64693 0.33977 0.49023 0.00000
N766 N 0.62080 0.33481 0.50569 0.00000
C767 C 0.62124 0.32991 0.54069 0.00000
C768 C 0.64779 0.32998 0.56025 0.00000
N769 N 0.67391 0.33494 0.54479 0.00000
N770 N 0.69960 0.34479 0.49432 0.00000
C771 C 0.69917 0.34968 0.45931 0.00000
C772 C 0.67262 0.34962 0.43975 0.00000
N773 N 0.64649 0.34466 0.45521 0.00000
H774 H 0.60190 0.32624 0.55214 0.00000
H775 H 0.71851 0.35336 0.44786 0.00000
C776 C 0.15216 0.00925 0.84774 0.00000
C777 C 0.17857 0.99751 0.85109 0.00000
N778 N 0.20485 0.01582 0.85390 0.00000
C779 C 0.20472 0.04589 0.85336 0.00000
C780 C 0.17831 0.05764 0.85001 0.00000
N781 N 0.15203 0.03932 0.84720 0.00000
N782 N 0.12588 0.99093 0.84493 0.00000
C783 C 0.12601 0.96087 0.84547 0.00000
C784 C 0.15243 0.94912 0.84882 0.00000
N785 N 0.17871 0.96744 0.85163 0.00000
H786 H 0.22418 0.05945 0.85544 0.00000
H787 H 0.10656 0.94731 0.84339 0.00000
C788 C 0.01441 0.16100 0.83461 0.00000
C789 C 0.03060 0.18783 0.84549 0.00000
N790 N 0.01680 0.21308 0.84790 0.00000
C791 C 0.98682 0.21151 0.83943 0.00000
C792 C 0.97063 0.18469 0.82855 0.00000
N793 N 0.98442 0.15943 0.82613 0.00000
N794 N 0.02821 0.13575 0.83219 0.00000
C795 C 0.05819 0.13731 0.84066 0.00000
C796 C 0.07438 0.16414 0.85155 0.00000
N797 N 0.06058 0.18940 0.85396 0.00000
H798 H 0.97660 0.23021 0.84122 0.00000
H799 H 0.06840 0.11862 0.83887 0.00000
loop_
_geom_bond_atom_site_label_1
_geom_bond_atom_site_label_2
_geom_bond_distance
_geom_bond_site_symmetry_2
_ccdc_geom_bond_type
O0 Zn6 2.282 . S
O0 C16 1.225 . A
O1 Zn8 1.972 . S
O1 C19 1.251 . A
O2 Zn6 1.963 . S
O2 C17 1.263 . A
O3 Zn9 1.932 . S
O3 C20 1.270 . A
O4 Zn9 1.971 . S
O4 C22 1.264 . A
O5 Zn6 1.949 . S
O5 Zn7 1.915 . S
O5 Zn8 1.963 . S
O5 Zn9 1.918 . S
Zn6 O10 2.105 . S
Zn6 O23 1.937 . S
Zn7 O11 1.944 . S
Zn7 O12 1.958 . S
Zn7 O15 1.978 . S
Zn8 O14 2.107 . S
Zn8 O24 2.258 . S
Zn8 O25 1.943 . S
Zn9 O13 1.963 . S
O10 C20 1.238 . A
O11 C18 1.252 . A
O12 C17 1.261 . A
O13 C19 1.257 . A
O14 C18 1.240 . A
O15 C22 1.258 . A
C16 O25 1.283 . A
C21 O23 1.265 . A
C21 O24 1.229 . A
O26 Zn32 2.282 . S
O26 C42 1.225 . A
O27 Zn34 1.972 . S
O27 C45 1.251 . A
O28 Zn32 1.963 . S
O28 C43 1.263 . A
O29 Zn35 1.932 . S
O29 C46 1.270 . A
O30 Zn35 1.971 . S
O30 C48 1.264 . A
O31 Zn32 1.949 . S
O31 Zn33 1.915 . S
O31 Zn34 1.963 . S
O31 Zn35 1.918 . S
Zn32 O36 2.105 . S
Zn32 O49 1.937 . S
Zn33 O37 1.944 . S
Zn33 O38 1.958 . S
Zn33 O41 1.978 . S
Zn34 O40 2.107 . S
Zn34 O50 2.258 . S
Zn34 O51 1.943 . S
Zn35 O39 1.963 . S
O36 C46 1.238 . A
O37 C44 1.252 . A
O38 C43 1.261 . A
O39 C45 1.257 . A
O40 C44 1.240 . A
O41 C48 1.258 . A
C42 O51 1.283 . A
C47 O49 1.265 . A
C47 O50 1.229 . A
O52 Zn58 2.282 . S
O52 C68 1.225 . A
O53 Zn60 1.972 . S
O53 C71 1.251 . A
O54 Zn58 1.963 . S
O54 C69 1.263 . A
O55 Zn61 1.932 . S
O55 C72 1.270 . A
O56 Zn61 1.971 . S
O56 C74 1.264 . A
O57 Zn58 1.949 . S
O57 Zn59 1.915 . S
O57 Zn60 1.963 . S
O57 Zn61 1.918 . S
Zn58 O62 2.105 . S
Zn58 O75 1.937 . S
Zn59 O63 1.944 . S
Zn59 O64 1.958 . S
Zn59 O67 1.978 . S
Zn60 O66 2.107 . S
Zn60 O76 2.258 . S
Zn60 O77 1.943 . S
Zn61 O65 1.963 . S
O62 C72 1.238 . A
O63 C70 1.252 . A
O64 C69 1.261 . A
O65 C71 1.257 . A
O66 C70 1.240 . A
O67 C74 1.258 . A
C68 O77 1.283 . A
C73 O75 1.265 . A
C73 O76 1.229 . A
O78 Zn84 2.282 . S
O78 C94 1.225 . A
O79 Zn86 1.972 . S
O79 C97 1.251 . A
O80 Zn84 1.963 . S
O80 C95 1.263 . A
O81 Zn87 1.932 . S
O81 C98 1.270 . A
O82 Zn87 1.971 . S
O82 C100 1.264 . A
O83 Zn84 1.949 . S
O83 Zn85 1.915 . S
O83 Zn86 1.963 . S
O83 Zn87 1.918 . S
Zn84 O88 2.105 . S
Zn84 O101 1.937 . S
Zn85 O89 1.944 . S
Zn85 O90 1.958 . S
Zn85 O93 1.978 . S
Zn86 O92 2.107 . S
Zn86 O102 2.258 . S
Zn86 O103 1.943 . S
Zn87 O91 1.963 . S
O88 C98 1.238 . A
O89 C96 1.252 . A
O90 C95 1.261 . A
O91 C97 1.257 . A
O92 C96 1.240 . A
O93 C100 1.258 . A
C94 O103 1.283 . A
C99 O101 1.265 . A
C99 O102 1.229 . A
O104 Zn110 2.282 . S
O104 C120 1.225 . A
O105 Zn112 1.972 . S
O105 C123 1.251 . A
O106 Zn110 1.963 . S
O106 C121 1.263 . A
O107 Zn113 1.932 . S
O107 C124 1.270 . A
O108 Zn113 1.971 . S
O108 C126 1.264 . A
O109 Zn110 1.949 . S
O109 Zn111 1.915 . S
O109 Zn112 1.963 . S
O109 Zn113 1.918 . S
Zn110 O114 2.105 . S
Zn110 O127 1.937 . S
Zn111 O115 1.944 . S
Zn111 O116 1.958 . S
Zn111 O119 1.978 . S
Zn112 O118 2.107 . S
Zn112 O128 2.258 . S
Zn112 O129 1.943 . S
Zn113 O117 1.963 . S
O114 C124 1.238 . A
O115 C122 1.252 . A
O116 C121 1.261 . A
O117 C123 1.257 . A
O118 C122 1.240 . A
O119 C126 1.258 . A
C120 O129 1.283 . A
C125 O127 1.265 . A
C125 O128 1.229 . A
O130 Zn136 2.282 . S
O130 C146 1.225 . A
O131 Zn138 1.972 . S
O131 C149 1.251 . A
O132 Zn136 1.963 . S
O132 C147 1.263 . A
O133 Zn139 1.932 . S
O133 C150 1.270 . A
O134 Zn139 1.971 . S
O134 C152 1.264 . A
O135 Zn136 1.949 . S
O135 Zn137 1.915 . S
O135 Zn138 1.963 . S
O135 Zn139 1.918 . S
Zn136 O140 2.105 . S
Zn136 O153 1.937 . S
Zn137 O141 1.944 . S
Zn137 O142 1.958 . S
Zn137 O145 1.978 . S
Zn138 O144 2.107 . S
Zn138 O154 2.258 . S
Zn138 O155 1.943 . S
Zn139 O143 1.963 . S
O140 C150 1.238 . A
O141 C148 1.252 . A
O142 C147 1.261 . A
O143 C149 1.257 . A
O144 C148 1.240 . A
O145 C152 1.258 . A
C146 O155 1.283 . A
C151 O153 1.265 . A
C151 O154 1.229 . A
O156 Zn162 2.282 . S
O156 C172 1.225 . A
O157 Zn164 1.972 . S
O157 C175 1.251 . A
O158 Zn162 1.963 . S
O158 C173 1.263 . A
O159 Zn165 1.932 . S
O159 C176 1.270 . A
O160 Zn165 1.971 . S
O160 C178 1.264 . A
O161 Zn162 1.949 . S
O161 Zn163 1.915 . S
O161 Zn164 1.963 . S
O161 Zn165 1.918 . S
Zn162 O166 2.105 . S
Zn162 O179 1.937 . S
Zn163 O167 1.944 . S
Zn163 O168 1.958 . S
Zn163 O171 1.978 . S
Zn164 O170 2.107 . S
Zn164 O180 2.258 . S
Zn164 O181 1.943 . S
Zn165 O169 1.963 . S
O166 C176 1.238 . A
O167 C174 1.252 . A
O168 C173 1.261 . A
O169 C175 1.257 . A
O170 C174 1.240 . A
O171 C178 1.258 . A
C172 O181 1.283 . A
C177 O179 1.265 . A
C177 O180 1.229 . A
O182 Zn188 2.282 . S
O182 C198 1.225 . A
O183 Zn190 1.972 . S
O183 C201 1.251 . A
O184 Zn188 1.963 . S
O184 C199 1.263 . A
O185 Zn191 1.932 . S
O185 C202 1.270 . A
O186 Zn191 1.971 . S
O186 C204 1.264 . A
O187 Zn188 1.949 . S
O187 Zn189 1.915 . S
O187 Zn190 1.963 . S
O187 Zn191 1.918 . S
Zn188 O192 2.105 . S
Zn188 O205 1.937 . S
Zn189 O193 1.944 . S
Zn189 O194 1.958 . S
Zn189 O197 1.978 . S
Zn190 O196 2.107 . S
Zn190 O206 2.258 . S
Zn190 O207 1.943 . S
Zn191 O195 1.963 . S
O192 C202 1.238 . A
O193 C200 1.252 . A
O194 C199 1.261 . A
O195 C201 1.257 . A
O196 C200 1.240 . A
O197 C204 1.258 . A
C198 O207 1.283 . A
C203 O205 1.265 . A
C203 O206 1.229 . A
O208 Zn214 2.282 . S
O208 C224 1.225 . A
O209 Zn216 1.972 . S
O209 C227 1.251 . A
O210 Zn214 1.963 . S
O210 C225 1.263 . A
O211 Zn217 1.932 . S
O211 C228 1.270 . A
O212 Zn217 1.971 . S
O212 C230 1.264 . A
O213 Zn214 1.949 . S
O213 Zn215 1.915 . S
O213 Zn216 1.963 . S
O213 Zn217 1.918 . S
Zn214 O218 2.105 . S
Zn214 O231 1.937 . S
Zn215 O219 1.944 . S
Zn215 O220 1.958 . S
Zn215 O223 1.978 . S
Zn216 O222 2.107 . S
Zn216 O232 2.258 . S
Zn216 O233 1.943 . S
Zn217 O221 1.963 . S
O218 C228 1.238 . A
O219 C226 1.252 . A
O220 C225 1.261 . A
O221 C227 1.257 . A
O222 C226 1.240 . A
O223 C230 1.258 . A
C224 O233 1.283 . A
C229 O231 1.265 . A
C229 O232 1.229 . A
O234 Zn240 2.282 . S
O234 C250 1.225 . A
O235 Zn242 1.972 . S
O235 C253 1.251 . A
O236 Zn240 1.963 . S
O236 C251 1.263 . A
O237 Zn243 1.932 . S
O237 C254 1.270 . A
O238 Zn243 1.971 . S
O238 C256 1.264 . A
O239 Zn240 1.949 . S
O239 Zn241 1.915 . S
O239 Zn242 1.963 . S
O239 Zn243 1.918 . S
Zn240 O244 2.105 . S
Zn240 O257 1.937 . S
Zn241 O245 1.944 . S
Zn241 O246 1.958 . S
Zn241 O249 1.978 . S
Zn242 O248 2.107 . S
Zn242 O258 2.258 . S
Zn242 O259 1.943 . S
Zn243 O247 1.963 . S
O244 C254 1.238 . A
O245 C252 1.252 . A
O246 C251 1.261 . A
O247 C253 1.257 . A
O248 C252 1.240 . A
O249 C256 1.258 . A
C250 O259 1.283 . A
C255 O257 1.265 . A
C255 O258 1.229 . A
O260 Zn266 2.282 . S
O260 C276 1.225 . A
O261 Zn268 1.972 . S
O261 C279 1.251 . A
O262 Zn266 1.963 . S
O262 C277 1.263 . A
O263 Zn269 1.932 . S
O263 C280 1.270 . A
O264 Zn269 1.971 . S
O264 C282 1.264 . A
O265 Zn266 1.949 . S
O265 Zn267 1.915 . S
O265 Zn268 1.963 . S
O265 Zn269 1.918 . S
Zn266 O270 2.105 . S
Zn266 O283 1.937 . S
Zn267 O271 1.944 . S
Zn267 O272 1.958 . S
Zn267 O275 1.978 . S
Zn268 O274 2.107 . S
Zn268 O284 2.258 . S
Zn268 O285 1.943 . S
Zn269 O273 1.963 . S
O270 C280 1.238 . A
O271 C278 1.252 . A
O272 C277 1.261 . A
O273 C279 1.257 . A
O274 C278 1.240 . A
O275 C282 1.258 . A
C276 O285 1.283 . A
C281 O283 1.265 . A
C281 O284 1.229 . A
O286 Zn292 2.282 . S
O286 C302 1.225 . A
O287 Zn294 1.972 . S
O287 C305 1.251 . A
O288 Zn292 1.963 . S
O288 C303 1.263 . A
O289 Zn295 1.932 . S
O289 C306 1.270 . A
O290 Zn295 1.971 . S
O290 C308 1.264 . A
O291 Zn292 1.949 . S
O291 Zn293 1.915 . S
O291 Zn294 1.963 . S
O291 Zn295 1.918 . S
Zn292 O296 2.105 . S
Zn292 O309 1.937 . S
Zn293 O297 1.944 . S
Zn293 O298 1.958 . S
Zn293 O301 1.978 . S
Zn294 O300 2.107 . S
Zn294 O310 2.258 . S
Zn294 O311 1.943 . S
Zn295 O299 1.963 . S
O296 C306 1.238 . A
O297 C304 1.252 . A
O298 C303 1.261 . A
O299 C305 1.257 . A
O300 C304 1.240 . A
O301 C308 1.258 . A
C302 O311 1.283 . A
C307 O309 1.265 . A
C307 O310 1.229 . A
O312 Zn318 2.282 . S
O312 C328 1.225 . A
O313 Zn320 1.972 . S
O313 C331 1.251 . A
O314 Zn318 1.963 . S
O314 C329 1.263 . A
O315 Zn321 1.932 . S
O315 C332 1.270 . A
O316 Zn321 1.971 . S
O316 C334 1.264 . A
O317 Zn318 1.949 . S
O317 Zn319 1.915 . S
O317 Zn320 1.963 . S
O317 Zn321 1.918 . S
Zn318 O322 2.105 . S
Zn318 O335 1.937 . S
Zn319 O323 1.944 . S
Zn319 O324 1.958 . S
Zn319 O327 1.978 . S
Zn320 O326 2.107 . S
Zn320 O336 2.258 . S
Zn320 O337 1.943 . S
Zn321 O325 1.963 . S
O322 C332 1.238 . A
O323 C330 1.252 . A
O324 C329 1.261 . A
O325 C331 1.257 . A
O326 C330 1.240 . A
O327 C334 1.258 . A
C328 O337 1.283 . A
C333 O335 1.265 . A
C333 O336 1.229 . A
O338 Zn344 2.282 . S
O338 C354 1.225 . A
O339 Zn346 1.972 . S
O339 C357 1.251 . A
O340 Zn344 1.963 . S
O340 C355 1.263 . A
O341 Zn347 1.932 . S
O341 C358 1.270 . A
O342 Zn347 1.971 . S
O342 C360 1.264 . A
O343 Zn344 1.949 . S
O343 Zn345 1.915 . S
O343 Zn346 1.963 . S
O343 Zn347 1.918 . S
Zn344 O348 2.105 . S
Zn344 O361 1.937 . S
Zn345 O349 1.944 . S
Zn345 O350 1.958 . S
Zn345 O353 1.978 . S
Zn346 O352 2.107 . S
Zn346 O362 2.258 . S
Zn346 O363 1.943 . S
Zn347 O351 1.963 . S
O348 C358 1.238 . A
O349 C356 1.252 . A
O350 C355 1.261 . A
O351 C357 1.257 . A
O352 C356 1.240 . A
O353 C360 1.258 . A
C354 O363 1.283 . A
C359 O361 1.265 . A
C359 O362 1.229 . A
O364 Zn370 2.282 . S
O364 C380 1.225 . A
O365 Zn372 1.972 . S
O365 C383 1.251 . A
O366 Zn370 1.963 . S
O366 C381 1.263 . A
O367 Zn373 1.932 . S
O367 C384 1.270 . A
O368 Zn373 1.971 . S
O368 C386 1.264 . A
O369 Zn370 1.949 . S
O369 Zn371 1.915 . S
O369 Zn372 1.963 . S
O369 Zn373 1.918 . S
Zn370 O374 2.105 . S
Zn370 O387 1.937 . S
Zn371 O375 1.944 . S
Zn371 O376 1.958 . S
Zn371 O379 1.978 . S
Zn372 O378 2.107 . S
Zn372 O388 2.258 . S
Zn372 O389 1.943 . S
Zn373 O377 1.963 . S
O374 C384 1.238 . A
O375 C382 1.252 . A
O376 C381 1.261 . A
O377 C383 1.257 . A
O378 C382 1.240 . A
O379 C386 1.258 . A
C380 O389 1.283 . A
C385 O387 1.265 . A
C385 O388 1.229 . A
O390 Zn396 2.282 . S
O390 C406 1.225 . A
O391 Zn398 1.972 . S
O391 C409 1.251 . A
O392 Zn396 1.963 . S
O392 C407 1.263 . A
O393 Zn399 1.932 . S
O393 C410 1.270 . A
O394 Zn399 1.971 . S
O394 C412 1.264 . A
O395 Zn396 1.949 . S
O395 Zn397 1.915 . S
O395 Zn398 1.963 . S
O395 Zn399 1.918 . S
Zn396 O400 2.105 . S
Zn396 O413 1.937 . S
Zn397 O401 1.944 . S
Zn397 O402 1.958 . S
Zn397 O405 1.978 . S
Zn398 O404 2.107 . S
Zn398 O414 2.258 . S
Zn398 O415 1.943 . S
Zn399 O403 1.963 . S
O400 C410 1.238 . A
O401 C408 1.252 . A
O402 C407 1.261 . A
O403 C409 1.257 . A
O404 C408 1.240 . A
O405 C412 1.258 . A
C406 O415 1.283 . A
C411 O413 1.265 . A
C411 O414 1.229 . A
C416 C417 1.540 . A
C416 N421 1.540 . A
C416 N422 1.540 . A
C417 N418 1.540 . A
C417 N425 1.540 . A
N418 C419 1.540 . A
C419 C420 1.540 . A
C419 H426 1.140 . S
C420 N421 1.540 . A
N422 C423 1.540 . A
C423 C424 1.540 . A
C423 H427 1.140 . S
C424 N425 1.540 . A
C428 C429 1.540 . A
C428 N433 1.540 . A
C428 N434 1.540 . A
C429 N430 1.540 . A
C429 N437 1.540 . A
N430 C431 1.540 . A
C431 C432 1.540 . A
C431 H438 1.140 . S
C432 N433 1.540 . A
N434 C435 1.540 . A
C435 C436 1.540 . A
C435 H439 1.140 . S
C436 N437 1.540 . A
C440 C441 1.540 . A
C440 N445 1.540 . A
C440 N446 1.540 . A
C441 N442 1.540 . A
C441 N449 1.540 . A
N442 C443 1.540 . A
C443 C444 1.540 . A
C443 H450 1.140 . S
C444 N445 1.540 . A
N446 C447 1.540 . A
C447 C448 1.540 . A
C447 H451 1.140 . S
C448 N449 1.540 . A
C452 C453 1.540 . A
C452 N457 1.540 . A
C452 N458 1.540 . A
C453 N454 1.540 . A
C453 N461 1.540 . A
N454 C455 1.540 . A
C455 C456 1.540 . A
C455 H462 1.140 . S
C456 N457 1.540 . A
N458 C459 1.540 . A
C459 C460 1.540 . A
C459 H463 1.140 . S
C460 N461 1.540 . A
C464 C465 1.540 . A
C464 N469 1.540 . A
C464 N470 1.540 . A
C465 N466 1.540 . A
C465 N473 1.540 . A
N466 C467 1.540 . A
C467 C468 1.540 . A
C467 H474 1.140 . S
C468 N469 1.540 . A
N470 C471 1.540 . A
C471 C472 1.540 . A
C471 H475 1.140 . S
C472 N473 1.540 . A
C476 C477 1.540 . A
C476 N481 1.540 . A
C476 N482 1.540 . A
C477 N478 1.540 . A
C477 N485 1.540 . A
N478 C479 1.540 . A
C479 C480 1.540 . A
C479 H486 1.140 . S
C480 N481 1.540 . A
N482 C483 1.540 . A
C483 C484 1.540 . A
C483 H487 1.140 . S
C484 N485 1.540 . A
C488 C489 1.540 . A
C488 N493 1.540 . A
C488 N494 1.540 . A
C489 N490 1.540 . A
C489 N497 1.540 . A
N490 C491 1.540 . A
C491 C492 1.540 . A
C491 H498 1.140 . S
C492 N493 1.540 . A
N494 C495 1.540 . A
C495 C496 1.540 . A
C495 H499 1.140 . S
C496 N497 1.540 . A
C500 C501 1.540 . A
C500 N505 1.540 . A
C500 N506 1.540 . A
C501 N502 1.540 . A
C501 N509 1.540 . A
N502 C503 1.540 . A
C503 C504 1.540 . A
C503 H510 1.140 . S
C504 N505 1.540 . A
N506 C507 1.540 . A
C507 C508 1.540 . A
C507 H511 1.140 . S
C508 N509 1.540 . A
C512 C513 1.540 . A
C512 N517 1.540 . A
C512 N518 1.540 . A
C513 N514 1.540 . A
C513 N521 1.540 1_545 A
N514 C515 1.540 . A
C515 C516 1.540 . A
C515 H522 1.140 . S
C516 N517 1.540 . A
N518 C519 1.540 1_545 A
C519 C520 1.540 . A
C519 H523 1.140 . S
C520 N521 1.540 . A
C524 C525 1.540 . A
C524 N529 1.540 1_655 A
C524 N530 1.540 . A
C525 N526 1.540 . A
C525 N533 1.540 . A
N526 C527 1.540 1_655 A
C527 C528 1.540 . A
C527 H534 1.140 . S
C528 N529 1.540 . A
N530 C531 1.540 . A
C531 C532 1.540 . A
C531 H535 1.140 . S
C532 N533 1.540 . A
C536 C537 1.540 . A
C536 N541 1.540 . A
C536 N542 1.540 . A
C537 N538 1.540 . A
C537 N545 1.540 1_565 A
N538 C539 1.540 . A
C539 C540 1.540 . A
C539 H546 1.140 . S
C540 N541 1.540 . A
N542 C543 1.540 1_565 A
C543 C544 1.540 . A
C543 H547 1.140 . S
C544 N545 1.540 . A
C548 C549 1.540 1_655 A
C548 N553 1.540 . A
C548 N554 1.540 1_655 A
C549 N550 1.541 1_455 A
C549 N557 1.539 . A
N550 C551 1.540 . A
C551 C552 1.540 . A
C551 H558 1.140 . S
C552 N553 1.540 . A
N554 C555 1.540 . A
C555 C556 1.540 . A
C555 H559 1.140 . S
C556 N557 1.540 . A
C560 C561 1.564 . A
C560 N565 1.495 1_565 A
C560 N566 1.561 . A
C561 N562 1.540 . A
C561 N569 1.540 . A
N562 C563 1.540 1_565 A
C563 C564 1.540 . A
C563 H570 1.140 . S
C564 N565 1.540 . A
N566 C567 1.540 . A
C567 C568 1.540 . A
C567 H571 1.140 . S
C568 N569 1.540 . A
C572 C573 1.540 . A
C572 N577 1.540 1_455 A
C572 N578 1.540 . A
C573 N574 1.540 . A
C573 N581 1.540 . A
N574 C575 1.540 1_455 A
C575 C576 1.540 . A
C575 H582 1.140 . S
C576 N577 1.540 . A
N578 C579 1.540 . A
C579 C580 1.540 . A
C579 H583 1.140 . S
C580 N581 1.540 . A
C584 C585 1.540 1_556 A
C584 N589 1.540 . A
C584 N590 1.540 1_556 A
C585 N586 1.540 1_554 A
C585 N593 1.540 . A
N586 C587 1.540 . A
C587 C588 1.540 . A
C587 H594 1.140 . S
C588 N589 1.540 . A
N590 C591 1.540 . A
C591 C592 1.540 . A
C591 H595 1.140 . S
C592 N593 1.540 . A
C596 C597 1.540 1_554 A
C596 N601 1.540 . A
C596 N602 1.540 1_554 A
C597 N598 1.540 1_556 A
C597 N605 1.540 . A
N598 C599 1.540 . A
C599 C600 1.540 . A
C599 H606 1.140 . S
C600 N601 1.540 . A
N602 C603 1.540 . A
C603 C604 1.540 . A
C603 H607 1.140 . S
C604 N605 1.540 . A
C608 C609 1.540 . A
C608 N613 1.540 . A
C608 N614 1.540 . A
C609 N610 1.540 . A
C609 N617 1.540 1_556 A
N610 C611 1.540 . A
C611 C612 1.540 . A
C611 H618 1.140 . S
C612 N613 1.540 . A
N614 C615 1.540 1_556 A
C615 C616 1.540 . A
C615 H619 1.140 . S
C616 N617 1.540 . A
C620 C621 1.540 . A
C620 N625 1.540 1_554 A
C620 N626 1.540 . A
C621 N622 1.540 . A
C621 N629 1.540 . A
N622 C623 1.540 1_554 A
C623 C624 1.540 . A
C623 H630 1.140 . S
C624 N625 1.540 . A
N626 C627 1.540 . A
C627 C628 1.540 . A
C627 H631 1.140 . S
C628 N629 1.540 . A
C632 C633 1.540 . A
C632 N637 1.540 . A
C632 N638 1.540 . A
C633 N634 1.540 . A
C633 N641 1.540 . A
N634 C635 1.540 . A
C635 C636 1.540 . A
C635 H642 1.140 . S
C636 N637 1.540 . A
N638 C639 1.540 . A
C639 C640 1.540 . A
C639 H643 1.140 . S
C640 N641 1.540 . A
C644 C645 1.540 . A
C644 N649 1.540 . A
C644 N650 1.540 . A
C645 N646 1.540 . A
C645 N653 1.540 . A
N646 C647 1.540 . A
C647 C648 1.540 . A
C647 H654 1.140 . S
C648 N649 1.540 . A
N650 C651 1.540 . A
C651 C652 1.540 . A
C651 H655 1.140 . S
C652 N653 1.540 . A
C656 C657 1.540 . A
C656 N661 1.540 . A
C656 N662 1.540 . A
C657 N658 1.540 . A
C657 N665 1.540 . A
N658 C659 1.540 . A
C659 C660 1.540 . A
C659 H666 1.140 . S
C660 N661 1.540 . A
N662 C663 1.540 . A
C663 C664 1.540 . A
C663 H667 1.140 . S
C664 N665 1.540 . A
C668 C669 1.540 . A
C668 N673 1.540 . A
C668 N674 1.540 . A
C669 N670 1.540 . A
C669 N677 1.540 . A
N670 C671 1.540 . A
C671 C672 1.540 . A
C671 H678 1.140 . S
C672 N673 1.540 . A
N674 C675 1.540 . A
C675 C676 1.540 . A
C675 H679 1.140 . S
C676 N677 1.540 . A
C680 C681 1.540 . A
C680 N685 1.540 . A
C680 N686 1.540 . A
C681 N682 1.540 . A
C681 N689 1.540 . A
N682 C683 1.540 . A
C683 C684 1.540 . A
C683 H690 1.140 . S
C684 N685 1.540 . A
N686 C687 1.540 . A
C687 C688 1.540 . A
C687 H691 1.140 . S
C688 N689 1.540 . A
C692 C693 1.540 . A
C692 N697 1.540 . A
C692 N698 1.540 . A
C693 N694 1.540 . A
C693 N701 1.540 . A
N694 C695 1.540 . A
C695 C696 1.540 . A
C695 H702 1.140 . S
C696 N697 1.540 . A
N698 C699 1.540 . A
C699 C700 1.540 . A
C699 H703 1.140 . S
C700 N701 1.540 . A
C704 C705 1.540 . A
C704 N709 1.540 . A
C704 N710 1.540 . A
C705 N706 1.540 . A
C705 N713 1.540 . A
N706 C707 1.540 . A
C707 C708 1.540 . A
C707 H714 1.140 . S
C708 N709 1.540 . A
N710 C711 1.540 . A
C711 C712 1.540 . A
C711 H715 1.140 . S
C712 N713 1.540 . A
C716 C717 1.540 . A
C716 N721 1.540 . A
C716 N722 1.540 . A
C717 N718 1.540 . A
C717 N725 1.540 . A
N718 C719 1.540 . A
C719 C720 1.540 . A
C719 H726 1.140 . S
C720 N721 1.540 . A
N722 C723 1.540 . A
C723 C724 1.540 . A
C723 H727 1.140 . S
C724 N725 1.540 . A
C728 C729 1.540 . A
C728 N733 1.540 . A
C728 N734 1.540 . A
C729 N730 1.540 . A
C729 N737 1.540 . A
N730 C731 1.540 . A
C731 C732 1.540 . A
C731 H738 1.140 . S
C732 N733 1.540 . A
N734 C735 1.540 . A
C735 C736 1.540 . A
C735 H739 1.140 . S
C736 N737 1.540 . A
C740 C741 1.540 . A
C740 N745 1.540 . A
C740 N746 1.540 . A
C741 N742 1.540 . A
C741 N749 1.540 . A
N742 C743 1.540 . A
C743 C744 1.540 . A
C743 H750 1.140 . S
C744 N745 1.540 . A
N746 C747 1.540 . A
C747 C748 1.540 . A
C747 H751 1.140 . S
C748 N749 1.540 . A
C752 C753 1.540 . A
C752 N757 1.540 . A
C752 N758 1.540 . A
C753 N754 1.540 . A
C753 N761 1.540 . A
N754 C755 1.540 . A
C755 C756 1.540 . A
C755 H762 1.140 . S
C756 N757 1.540 . A
N758 C759 1.540 . A
C759 C760 1.540 . A
C759 H763 1.140 . S
C760 N761 1.540 . A
C764 C765 1.540 . A
C764 N769 1.540 . A
C764 N770 1.540 . A
C765 N766 1.540 . A
C765 N773 1.540 . A
N766 C767 1.540 . A
C767 C768 1.540 . A
C767 H774 1.140 . S
C768 N769 1.540 . A
N770 C771 1.540 . A
C771 C772 1.540 . A
C771 H775 1.140 . S
C772 N773 1.540 . A
C776 C777 1.540 1_545 A
C776 N781 1.540 . A
C776 N782 1.540 1_545 A
C777 N778 1.540 1_565 A
C777 N785 1.540 . A
N778 C779 1.540 . A
C779 C780 1.540 . A
C779 H786 1.140 . S
C780 N781 1.540 . A
N782 C783 1.540 . A
C783 C784 1.540 . A
C783 H787 1.140 . S
C784 N785 1.540 . A
C788 C789 1.540 . A
C788 N793 1.540 1_455 A
C788 N794 1.540 . A
C789 N790 1.540 . A
C789 N797 1.540 . A
N790 C791 1.540 1_455 A
C791 C792 1.540 . A
C791 H798 1.140 . S
C792 N793 1.540 . A
N794 C795 1.540 . A
C795 C796 1.540 . A
C795 H799 1.140 . S
C796 N797 1.540 . A
C420 C382 1.909 . S
C424 C18 1.877 . S
C432 C408 1.908 . S
C436 C44 1.894 . S
C444 C70 1.745 . S
C448 C226 1.766 . S
C456 C96 1.892 . S
C460 C252 1.876 . S
C468 C278 1.571 . S
C472 C122 1.593 . S
C480 C148 1.569 . S
C484 C304 1.591 . S
C492 C330 1.885 . S
C496 C174 1.898 . S
C504 C200 1.742 . S
C508 C356 1.762 . S
C516 C20 1.809 . S
C520 C151 1.834 . S
C528 C125 1.794 . S
C532 C46 1.779 . S
C540 C73 1.498 . S
C544 C47 1.490 . S
C552 C69 1.631 . S
C556 C98 1.619 . S
C564 C124 1.717 . S
C568 C99 1.725 . S
C576 C150 1.722 . S
C580 C177 1.742 . S
C588 C173 1.530 . S
C592 C95 1.542 . S
C600 C43 1.607 . S
C604 C17 1.622 . S
C612 C147 1.478 . S
C616 C72 1.571 . S
C624 C202 1.527 . S
C628 C121 1.498 . S
C636 C303 1.497 . S
C640 C228 1.527 . S
C648 C251 1.626 . S
C652 C329 1.608 . S
C660 C277 1.478 . S
C664 C358 1.570 . S
C672 C307 1.844 . S
C676 C332 1.824 . S
C684 C333 1.462 . S
C688 C359 1.514 . S
C696 C355 1.651 . S
C700 C384 1.673 . S
C708 C306 1.651 . S
C712 C385 1.700 . S
C720 C411 1.689 . S
C724 C280 1.644 . S
C732 C410 1.669 . S
C736 C225 1.653 . S
C744 C255 1.461 . S
C748 C229 1.493 . S
C756 C281 1.823 . S
C760 C254 1.797 . S
C768 C381 1.545 . S
C772 C407 1.535 . S
C780 C199 1.652 . S
C784 C176 1.670 . S
C792 C21 1.488 . S
C796 C203 1.497 . S
