# Generated by pormake.
# Topology pcb, (4)-cn, num edge types: 1
# Building blocks:
#     Node 0, Type 0, BuildingBlock: N197, # of connection points: 6
#     Node 1, Type 0, BuildingBlock: N197, # of connection points: 6
#     Node 2, Type 0, BuildingBlock: N197, # of connection points: 6
#     Node 3, Type 0, BuildingBlock: N197, # of connection points: 6
#     Node 4, Type 0, BuildingBlock: N197, # of connection points: 6
#     Node 5, Type 0, BuildingBlock: N197, # of connection points: 6
#     Node 6, Type 0, BuildingBlock: N197, # of connection points: 6
#     Node 7, Type 0, BuildingBlock: N197, # of connection points: 6
#     Node 8, Type 0, BuildingBlock: N197, # of connection points: 6
#     Node 9, Type 0, BuildingBlock: N197, # of connection points: 6
#     Node 10, Type 0, BuildingBlock: N197, # of connection points: 6
#     Node 11, Type 0, BuildingBlock: N197, # of connection points: 6
#     Node 12, Type 0, BuildingBlock: N197, # of connection points: 6
#     Node 13, Type 0, BuildingBlock: N197, # of connection points: 6
#     Node 14, Type 0, BuildingBlock: N197, # of connection points: 6
#     Node 15, Type 0, BuildingBlock: N197, # of connection points: 6
#     Edge 16, Type (0, 0), BuildingBlock: E183, # of connection points: 2
#     Edge 17, Type (0, 0), BuildingBlock: E183, # of connection points: 2
#     Edge 18, Type (0, 0), BuildingBlock: E183, # of connection points: 2
#     Edge 19, Type (0, 0), BuildingBlock: E183, # of connection points: 2
#     Edge 20, Type (0, 0), BuildingBlock: E183, # of connection points: 2
#     Edge 21, Type (0, 0), BuildingBlock: E183, # of connection points: 2
#     Edge 22, Type (0, 0), BuildingBlock: E183, # of connection points: 2
#     Edge 23, Type (0, 0), BuildingBlock: E183, # of connection points: 2
#     Edge 24, Type (0, 0), BuildingBlock: E183, # of connection points: 2
#     Edge 25, Type (0, 0), BuildingBlock: E183, # of connection points: 2
#     Edge 26, Type (0, 0), BuildingBlock: E183, # of connection points: 2
#     Edge 27, Type (0, 0), BuildingBlock: E183, # of connection points: 2
#     Edge 28, Type (0, 0), BuildingBlock: E183, # of connection points: 2
#     Edge 29, Type (0, 0), BuildingBlock: E183, # of connection points: 2
#     Edge 30, Type (0, 0), BuildingBlock: E183, # of connection points: 2
#     Edge 31, Type (0, 0), BuildingBlock: E183, # of connection points: 2
#     Edge 32, Type (0, 0), BuildingBlock: E183, # of connection points: 2
#     Edge 33, Type (0, 0), BuildingBlock: E183, # of connection points: 2
#     Edge 34, Type (0, 0), BuildingBlock: E183, # of connection points: 2
#     Edge 35, Type (0, 0), BuildingBlock: E183, # of connection points: 2
#     Edge 36, Type (0, 0), BuildingBlock: E183, # of connection points: 2
#     Edge 37, Type (0, 0), BuildingBlock: E183, # of connection points: 2
#     Edge 38, Type (0, 0), BuildingBlock: E183, # of connection points: 2
#     Edge 39, Type (0, 0), BuildingBlock: E183, # of connection points: 2
#     Edge 40, Type (0, 0), BuildingBlock: E183, # of connection points: 2
#     Edge 41, Type (0, 0), BuildingBlock: E183, # of connection points: 2
#     Edge 42, Type (0, 0), BuildingBlock: E183, # of connection points: 2
#     Edge 43, Type (0, 0), BuildingBlock: E183, # of connection points: 2
#     Edge 44, Type (0, 0), BuildingBlock: E183, # of connection points: 2
#     Edge 45, Type (0, 0), BuildingBlock: E183, # of connection points: 2
#     Edge 46, Type (0, 0), BuildingBlock: E183, # of connection points: 2
#     Edge 47, Type (0, 0), BuildingBlock: E183, # of connection points: 2
# Relax obj value: 0.287
# Max RMSD: 0.384
# Mean RMSD: 0.293
data_pcb+N197+E183
_symmetry_space_group_name_H-M    P1
_symmetry_Int_Tables_number       1
_symmetry_cell_setting            triclinic
loop_
_symmetry_equiv_pos_as_xyz
'x, y, z'
_cell_length_a     44.269
_cell_length_b     43.731
_cell_length_c     41.996
_cell_angle_alpha  99.512
_cell_angle_beta   96.267
_cell_angle_gamma  91.352
loop_
_atom_site_label
_atom_site_type_symbol
_atom_site_fract_x
_atom_site_fract_y
_atom_site_fract_z
_atom_type_partial_charge
O0 O 0.86397 0.04648 0.80043 0.00000
O1 O 0.80139 0.11640 0.71654 0.00000
O2 O 0.81022 0.16165 0.74535 0.00000
Zn3 Zn 0.79794 0.07300 0.80479 0.00000
O4 O 0.82239 0.03525 0.76511 0.00000
Zn5 Zn 0.84322 0.14123 0.77032 0.00000
C6 C 0.89220 0.09696 0.75046 0.00000
Zn7 Zn 0.81581 0.08087 0.74248 0.00000
Zn8 Zn 0.86173 0.09381 0.80919 0.00000
C9 C 0.74925 0.07037 0.75836 0.00000
O10 O 0.89401 0.09174 0.77757 0.00000
C11 C 0.82688 0.09148 0.86708 0.00000
C12 C 0.87434 0.16298 0.83096 0.00000
O13 O 0.76930 0.06804 0.74097 0.00000
O14 O 0.75392 0.07682 0.78821 0.00000
O15 O 0.86433 0.09844 0.73318 0.00000
C16 C 0.84590 0.02719 0.78570 0.00000
O17 O 0.85576 0.17200 0.81072 0.00000
O18 O 0.88045 0.13631 0.83130 0.00000
C19 C 0.79811 0.14400 0.72116 0.00000
O20 O 0.82370 0.10329 0.78488 0.00000
O21 O 0.80093 0.08938 0.85245 0.00000
O22 O 0.85009 0.09055 0.85441 0.00000
O23 O 0.89560 0.10618 0.11818 0.00000
O24 O 0.81738 0.17546 0.19495 0.00000
O25 O 0.77471 0.15691 0.16895 0.00000
Zn26 Zn 0.86119 0.16632 0.10359 0.00000
O27 O 0.90057 0.15411 0.14646 0.00000
Zn28 Zn 0.79946 0.12240 0.14855 0.00000
C29 C 0.84879 0.08344 0.17529 0.00000
Zn30 Zn 0.85457 0.16019 0.16988 0.00000
Zn31 Zn 0.84909 0.10192 0.11065 0.00000
C32 C 0.85660 0.22235 0.14220 0.00000
O33 O 0.85466 0.07705 0.14800 0.00000
C34 C 0.84800 0.12470 0.04617 0.00000
C35 C 0.78332 0.07868 0.09329 0.00000
O36 O 0.86113 0.20658 0.16308 0.00000
O37 O 0.85146 0.21151 0.11305 0.00000
O38 O 0.84341 0.11344 0.18810 0.00000
C39 C 0.91189 0.12834 0.12931 0.00000
O40 O 0.77170 0.09954 0.11094 0.00000
O41 O 0.81026 0.07541 0.09301 0.00000
C42 C 0.78999 0.17497 0.19072 0.00000
O43 O 0.83443 0.14225 0.12916 0.00000
O44 O 0.84643 0.15271 0.05650 0.00000
O45 O 0.85165 0.10485 0.06286 0.00000
O46 O 0.89968 0.93026 0.20989 0.00000
O47 O 0.85470 0.85786 0.29363 0.00000
O48 O 0.86218 0.81275 0.26749 0.00000
Zn49 Zn 0.83465 0.89541 0.20173 0.00000
O50 O 0.86270 0.93797 0.24185 0.00000
Zn51 Zn 0.89000 0.83575 0.24371 0.00000
C52 C 0.93912 0.88679 0.26532 0.00000
Zn53 Zn 0.86271 0.89335 0.26664 0.00000
Zn54 Zn 0.89931 0.88278 0.20330 0.00000
C55 C 0.79286 0.89434 0.24484 0.00000
O56 O 0.93639 0.89068 0.23773 0.00000
C57 C 0.85529 0.87745 0.14185 0.00000
C58 C 0.91329 0.81493 0.18583 0.00000
O59 O 0.81548 0.90015 0.26388 0.00000
O60 O 0.79337 0.88693 0.21530 0.00000
O61 O 0.91396 0.88271 0.28073 0.00000
C62 C 0.88253 0.94779 0.22240 0.00000
O63 O 0.89842 0.80476 0.20536 0.00000
O64 O 0.91754 0.84201 0.18458 0.00000
C65 C 0.85258 0.82996 0.29013 0.00000
O66 O 0.86560 0.86990 0.22547 0.00000
O67 O 0.83141 0.87700 0.15454 0.00000
O68 O 0.88043 0.88202 0.15643 0.00000
O69 O 0.13379 0.88291 0.15576 0.00000
O70 O 0.21920 0.80097 0.19618 0.00000
O71 O 0.19254 0.75837 0.18152 0.00000
Zn72 Zn 0.13743 0.85330 0.22033 0.00000
O73 O 0.17064 0.88885 0.19706 0.00000
Zn74 Zn 0.16557 0.78306 0.15430 0.00000
C75 C 0.17774 0.82832 0.10921 0.00000
Zn76 Zn 0.19307 0.84016 0.19170 0.00000
Zn77 Zn 0.12684 0.83573 0.14965 0.00000
C78 C 0.18545 0.84912 0.26588 0.00000
O79 O 0.15246 0.83632 0.11196 0.00000
C80 C 0.07722 0.84202 0.19441 0.00000
C81 C 0.10671 0.76841 0.12521 0.00000
O82 O 0.19926 0.85076 0.24298 0.00000
O83 O 0.15755 0.84571 0.26361 0.00000
O84 O 0.19671 0.82380 0.13591 0.00000
C85 C 0.14896 0.90014 0.17672 0.00000
O86 O 0.12755 0.75642 0.14022 0.00000
O87 O 0.10524 0.79574 0.12426 0.00000
C88 C 0.21582 0.77332 0.19463 0.00000
O89 O 0.15356 0.82194 0.18446 0.00000
O90 O 0.09348 0.84147 0.22017 0.00000
O91 O 0.08637 0.84284 0.16854 0.00000
O92 O 0.08142 0.12543 0.13101 0.00000
O93 O 0.17684 0.21144 0.18288 0.00000
O94 O 0.21425 0.18426 0.16837 0.00000
Zn95 Zn 0.12456 0.12759 0.19721 0.00000
O96 O 0.08662 0.16225 0.17489 0.00000
Zn97 Zn 0.18228 0.15741 0.13766 0.00000
C98 C 0.12874 0.17107 0.09132 0.00000
Zn99 Zn 0.13529 0.18503 0.17409 0.00000
Zn100 Zn 0.12648 0.11820 0.12692 0.00000
C101 C 0.14143 0.17568 0.24681 0.00000
O102 O 0.11971 0.14520 0.09151 0.00000
C103 C 0.12632 0.06653 0.16698 0.00000
C104 C 0.18681 0.09778 0.10458 0.00000
O105 O 0.13593 0.19031 0.22508 0.00000
O106 O 0.14249 0.14719 0.24240 0.00000
O107 O 0.14007 0.18986 0.11974 0.00000
C108 C 0.06973 0.14058 0.15221 0.00000
O109 O 0.20323 0.11869 0.12192 0.00000
O110 O 0.15940 0.09644 0.10202 0.00000
C111 C 0.20372 0.20786 0.18256 0.00000
O112 O 0.14922 0.14468 0.16457 0.00000
O113 O 0.13334 0.08260 0.19401 0.00000
O114 O 0.12069 0.07645 0.14194 0.00000
O115 O 0.91119 0.87410 0.89535 0.00000
O116 O 0.81553 0.80225 0.81846 0.00000
O117 O 0.77885 0.81855 0.84527 0.00000
Zn118 Zn 0.87991 0.81199 0.90898 0.00000
O119 O 0.90961 0.82666 0.86609 0.00000
Zn120 Zn 0.80829 0.85398 0.86602 0.00000
C121 C 0.85165 0.89569 0.83965 0.00000
Zn122 Zn 0.85838 0.81885 0.84326 0.00000
Zn123 Zn 0.86646 0.87618 0.90353 0.00000
C124 C 0.86642 0.75615 0.86938 0.00000
O125 O 0.86369 0.90194 0.86686 0.00000
C126 C 0.87983 0.85229 0.96718 0.00000
C127 C 0.80478 0.89629 0.92217 0.00000
O128 O 0.86629 0.77250 0.84890 0.00000
O129 O 0.86790 0.76635 0.89868 0.00000
O130 O 0.84329 0.86554 0.82631 0.00000
C131 C 0.92487 0.85277 0.88357 0.00000
O132 O 0.78912 0.87511 0.90429 0.00000
O133 O 0.83176 0.90078 0.92217 0.00000
C134 C 0.78914 0.80145 0.82302 0.00000
O135 O 0.84750 0.83533 0.88442 0.00000
O136 O 0.87583 0.82428 0.95630 0.00000
O137 O 0.87978 0.87263 0.95097 0.00000
O138 O 0.11322 0.88250 0.87514 0.00000
O139 O 0.19778 0.80279 0.82054 0.00000
O140 O 0.23818 0.83191 0.83572 0.00000
Zn141 Zn 0.14185 0.88433 0.80913 0.00000
O142 O 0.10905 0.84682 0.83032 0.00000
Zn143 Zn 0.21277 0.85634 0.86720 0.00000
C144 C 0.16950 0.83847 0.91298 0.00000
Zn145 Zn 0.15801 0.82672 0.83024 0.00000
Zn146 Zn 0.15911 0.89226 0.87931 0.00000
C147 C 0.14816 0.83813 0.75824 0.00000
O148 O 0.16026 0.86393 0.91365 0.00000
C149 C 0.14984 0.94507 0.84114 0.00000
C150 C 0.22416 0.91574 0.90199 0.00000
O151 O 0.14751 0.82263 0.77938 0.00000
O152 O 0.15000 0.86671 0.76353 0.00000
O153 O 0.17473 0.82090 0.88410 0.00000
C154 C 0.09699 0.86709 0.85361 0.00000
O155 O 0.23690 0.89607 0.88403 0.00000
O156 O 0.19731 0.91544 0.90466 0.00000
C157 C 0.22469 0.80793 0.82089 0.00000
O158 O 0.17376 0.86783 0.84096 0.00000
O159 O 0.15104 0.92996 0.81373 0.00000
O160 O 0.14976 0.93421 0.86573 0.00000
O161 O 0.07273 0.15064 0.84256 0.00000
O162 O 0.15146 0.20315 0.76904 0.00000
O163 O 0.19336 0.20139 0.79947 0.00000
Zn164 Zn 0.09955 0.22029 0.85476 0.00000
O165 O 0.06572 0.18641 0.81074 0.00000
Zn166 Zn 0.17011 0.17106 0.81999 0.00000
C167 C 0.12746 0.11527 0.79297 0.00000
Zn168 Zn 0.11337 0.19131 0.79145 0.00000
Zn169 Zn 0.11886 0.15675 0.85421 0.00000
C170 C 0.10230 0.26177 0.81307 0.00000
O171 O 0.11952 0.11799 0.81949 0.00000
C172 C 0.11123 0.20260 0.91507 0.00000
C173 C 0.18517 0.15102 0.87862 0.00000
O174 O 0.10145 0.23804 0.79369 0.00000
O175 O 0.10564 0.26260 0.84271 0.00000
O176 O 0.13106 0.14082 0.77853 0.00000
C177 C 0.05532 0.16561 0.82853 0.00000
O178 O 0.19642 0.16687 0.86077 0.00000
O179 O 0.15856 0.14354 0.87685 0.00000
C180 C 0.17844 0.20865 0.77554 0.00000
O181 O 0.13126 0.19183 0.83419 0.00000
O182 O 0.11099 0.22647 0.90288 0.00000
O183 O 0.11125 0.17655 0.90016 0.00000
O184 O 0.62114 0.68191 0.39951 0.00000
O185 O 0.71301 0.74145 0.34805 0.00000
O186 O 0.75134 0.73122 0.37985 0.00000
Zn187 Zn 0.65319 0.74832 0.42725 0.00000
O188 O 0.62106 0.72410 0.37627 0.00000
Zn189 Zn 0.72294 0.69882 0.39095 0.00000
C190 C 0.67803 0.65021 0.35073 0.00000
Zn191 Zn 0.67131 0.72862 0.36334 0.00000
Zn192 Zn 0.66654 0.68252 0.41566 0.00000
C193 C 0.66451 0.79721 0.39676 0.00000
O194 O 0.66740 0.64908 0.37543 0.00000
C195 C 0.65647 0.71924 0.48120 0.00000
C196 C 0.72957 0.66737 0.44316 0.00000
O197 O 0.66357 0.77653 0.37378 0.00000
O198 O 0.66462 0.79276 0.42498 0.00000
O199 O 0.68566 0.67826 0.34265 0.00000
C200 C 0.60671 0.70082 0.38785 0.00000
O201 O 0.74430 0.68559 0.43060 0.00000
O202 O 0.70246 0.66219 0.43768 0.00000
C203 C 0.73978 0.74381 0.35759 0.00000
O204 O 0.68448 0.72049 0.40504 0.00000
O205 O 0.65985 0.74552 0.47455 0.00000
O206 O 0.65569 0.69537 0.46202 0.00000
O207 O 0.41618 0.61629 0.35185 0.00000
O208 O 0.36212 0.70372 0.28306 0.00000
O209 O 0.36944 0.74396 0.32032 0.00000
Zn210 Zn 0.34997 0.64245 0.35579 0.00000
O211 O 0.37723 0.61189 0.31290 0.00000
Zn212 Zn 0.40000 0.71830 0.34213 0.00000
C213 C 0.45004 0.67720 0.31846 0.00000
Zn214 Zn 0.37358 0.66259 0.30093 0.00000
Zn215 Zn 0.41418 0.66257 0.36990 0.00000
C216 C 0.30503 0.64896 0.30770 0.00000
O217 O 0.44937 0.66660 0.34278 0.00000
C218 C 0.37400 0.64894 0.42033 0.00000
C219 C 0.42642 0.72843 0.40601 0.00000
O220 O 0.32667 0.64996 0.29275 0.00000
O221 O 0.30724 0.64965 0.33731 0.00000
O222 O 0.42356 0.68214 0.30024 0.00000
C223 C 0.39889 0.59965 0.33244 0.00000
O224 O 0.40971 0.74157 0.38743 0.00000
O225 O 0.43197 0.70130 0.40118 0.00000
C226 C 0.35901 0.73081 0.29296 0.00000
O227 O 0.37827 0.67701 0.34593 0.00000
O228 O 0.34914 0.64973 0.40398 0.00000
O229 O 0.39842 0.65044 0.41034 0.00000
O230 O 0.39306 0.43646 0.33315 0.00000
O231 O 0.31590 0.33868 0.26504 0.00000
O232 O 0.34138 0.30052 0.27788 0.00000
Zn233 Zn 0.40061 0.39539 0.26471 0.00000
O234 O 0.36258 0.43211 0.28671 0.00000
Zn235 Zn 0.36343 0.33260 0.31337 0.00000
C236 C 0.34276 0.38478 0.36216 0.00000
Zn237 Zn 0.34042 0.38158 0.28031 0.00000
Zn238 Zn 0.40024 0.39037 0.33323 0.00000
C239 C 0.35987 0.37902 0.21047 0.00000
O240 O 0.36839 0.39481 0.36542 0.00000
C241 C 0.45716 0.39398 0.29966 0.00000
C242 C 0.41820 0.32819 0.35064 0.00000
O243 O 0.34225 0.38318 0.23056 0.00000
O244 O 0.38761 0.37858 0.21740 0.00000
O245 O 0.32815 0.37396 0.33177 0.00000
C246 C 0.38078 0.44897 0.31242 0.00000
O247 O 0.40000 0.31158 0.33021 0.00000
O248 O 0.41883 0.35616 0.35603 0.00000
C249 C 0.31975 0.31127 0.26297 0.00000
O250 O 0.37940 0.36808 0.29202 0.00000
O251 O 0.44502 0.38760 0.27130 0.00000
O252 O 0.44376 0.39826 0.32341 0.00000
O253 O 0.57314 0.60921 0.64813 0.00000
O254 O 0.66884 0.68199 0.72386 0.00000
O255 O 0.70605 0.65463 0.70908 0.00000
Zn256 Zn 0.60824 0.59767 0.71510 0.00000
O257 O 0.57569 0.63885 0.69689 0.00000
Zn258 Zn 0.67580 0.63448 0.67165 0.00000
C259 C 0.62901 0.65934 0.62519 0.00000
Zn260 Zn 0.62629 0.65918 0.70593 0.00000
Zn261 Zn 0.61824 0.59987 0.64783 0.00000
C262 C 0.62264 0.63709 0.77268 0.00000
O263 O 0.61795 0.63362 0.61932 0.00000
C264 C 0.60911 0.54073 0.67511 0.00000
C265 C 0.67990 0.57930 0.62958 0.00000
O266 O 0.62096 0.65590 0.75465 0.00000
O267 O 0.62207 0.60887 0.76310 0.00000
O268 O 0.63825 0.67294 0.65665 0.00000
C269 C 0.55994 0.62171 0.66962 0.00000
O270 O 0.69579 0.59661 0.65166 0.00000
O271 O 0.65266 0.58002 0.62392 0.00000
C272 C 0.69553 0.67680 0.72580 0.00000
O273 O 0.63835 0.61903 0.69066 0.00000
O274 O 0.61400 0.55205 0.70427 0.00000
O275 O 0.60736 0.55534 0.65306 0.00000
O276 O 0.39339 0.60250 0.64287 0.00000
O277 O 0.30754 0.66111 0.71760 0.00000
O278 O 0.26863 0.65421 0.68158 0.00000
Zn279 Zn 0.36965 0.67066 0.64304 0.00000
O280 O 0.39796 0.64268 0.68345 0.00000
Zn281 Zn 0.29343 0.62201 0.65735 0.00000
C282 C 0.33187 0.57022 0.67706 0.00000
Zn283 Zn 0.34801 0.64801 0.69758 0.00000
Zn284 Zn 0.34838 0.60557 0.62674 0.00000
C285 C 0.36348 0.71739 0.69347 0.00000
O286 O 0.34284 0.57024 0.65236 0.00000
C287 C 0.36400 0.64536 0.57766 0.00000
C288 C 0.28413 0.59438 0.59265 0.00000
O289 O 0.36156 0.69559 0.70746 0.00000
O290 O 0.36339 0.71469 0.66379 0.00000
O291 O 0.32738 0.59763 0.69670 0.00000
C292 C 0.40980 0.61996 0.66243 0.00000
O293 O 0.27129 0.61207 0.61251 0.00000
O294 O 0.31051 0.58805 0.59615 0.00000
C295 C 0.28124 0.66490 0.70891 0.00000
O296 O 0.33469 0.64294 0.65294 0.00000
O297 O 0.36357 0.67097 0.59519 0.00000
O298 O 0.36162 0.62066 0.58656 0.00000
O299 O 0.32238 0.39253 0.60268 0.00000
O300 O 0.26100 0.30888 0.66295 0.00000
O301 O 0.26688 0.26694 0.63008 0.00000
Zn302 Zn 0.25485 0.36400 0.58258 0.00000
O303 O 0.28267 0.39805 0.63105 0.00000
Zn304 Zn 0.29959 0.29192 0.61473 0.00000
C305 C 0.35134 0.33593 0.64932 0.00000
Zn306 Zn 0.27551 0.34869 0.64539 0.00000
Zn307 Zn 0.31802 0.34557 0.58701 0.00000
C308 C 0.20822 0.35914 0.61924 0.00000
O309 O 0.35205 0.34472 0.62400 0.00000
C310 C 0.28031 0.35413 0.52460 0.00000
C311 C 0.32719 0.27860 0.55829 0.00000
O312 O 0.22929 0.35996 0.64017 0.00000
O313 O 0.21126 0.35655 0.59012 0.00000
O314 O 0.32410 0.33130 0.66083 0.00000
C315 C 0.30560 0.40962 0.61645 0.00000
O316 O 0.30916 0.26626 0.57331 0.00000
O317 O 0.33427 0.30590 0.56287 0.00000
C318 C 0.25650 0.28137 0.65393 0.00000
O319 O 0.28062 0.33160 0.60237 0.00000
O320 O 0.25500 0.35353 0.53439 0.00000
O321 O 0.30427 0.35423 0.54132 0.00000
O322 O 0.58895 0.34639 0.61770 0.00000
O323 O 0.66163 0.25227 0.65411 0.00000
O324 O 0.63644 0.21297 0.62510 0.00000
Zn325 Zn 0.57692 0.30284 0.66909 0.00000
O326 O 0.61678 0.34267 0.66422 0.00000
Zn327 Zn 0.61666 0.24449 0.60047 0.00000
C328 C 0.64080 0.29937 0.57364 0.00000
Zn329 Zn 0.63825 0.29373 0.65326 0.00000
Zn330 Zn 0.58133 0.30006 0.59972 0.00000
C331 C 0.61452 0.28762 0.71958 0.00000
O332 O 0.61531 0.30769 0.57218 0.00000
C333 C 0.52213 0.29868 0.62968 0.00000
C334 C 0.56377 0.23754 0.55777 0.00000
O335 O 0.63346 0.29362 0.70275 0.00000
O336 O 0.58703 0.28551 0.71041 0.00000
O337 O 0.65359 0.28864 0.60067 0.00000
C338 C 0.60016 0.35902 0.64380 0.00000
O339 O 0.58070 0.22161 0.57309 0.00000
O340 O 0.56369 0.26549 0.56294 0.00000
C341 C 0.65740 0.22467 0.64554 0.00000
O342 O 0.59964 0.27801 0.63358 0.00000
O343 O 0.53259 0.29225 0.65617 0.00000
O344 O 0.53705 0.30461 0.60895 0.00000
O345 O 0.64881 0.40611 0.36177 0.00000
O346 O 0.73293 0.32476 0.30894 0.00000
O347 O 0.77378 0.34642 0.33643 0.00000
Zn348 Zn 0.69106 0.41607 0.30737 0.00000
O349 O 0.64907 0.37855 0.31228 0.00000
Zn350 Zn 0.74545 0.36868 0.36608 0.00000
C351 C 0.69069 0.34793 0.39592 0.00000
Zn352 Zn 0.69482 0.35216 0.31621 0.00000
Zn353 Zn 0.69472 0.40950 0.37583 0.00000
C354 C 0.70153 0.37766 0.25181 0.00000
O355 O 0.68489 0.37467 0.40071 0.00000
C356 C 0.70066 0.47072 0.35164 0.00000
C357 C 0.75765 0.42106 0.41315 0.00000
O358 O 0.69439 0.35835 0.26733 0.00000
O359 O 0.70616 0.40535 0.26345 0.00000
O360 O 0.69944 0.33465 0.36664 0.00000
C361 C 0.63509 0.39639 0.33590 0.00000
O362 O 0.77130 0.40279 0.39463 0.00000
O363 O 0.73048 0.42364 0.41080 0.00000
C364 C 0.76021 0.32652 0.31515 0.00000
O365 O 0.71382 0.38980 0.33807 0.00000
O366 O 0.70545 0.46017 0.32356 0.00000
O367 O 0.69401 0.45542 0.37144 0.00000
C368 C 0.69220 0.20699 0.65815 0.00000
C369 C 0.73066 0.18727 0.69179 0.00000
C370 C 0.73649 0.17815 0.66265 0.00000
S371 S 0.75431 0.17755 0.72589 0.00000
S372 S 0.76865 0.15513 0.65427 0.00000
S373 S 0.69850 0.21029 0.70017 0.00000
S374 S 0.71284 0.18787 0.62855 0.00000
C375 C 0.77495 0.15843 0.69630 0.00000
C376 C 0.76712 0.29154 0.29052 0.00000
C377 C 0.76113 0.24276 0.25605 0.00000
C378 C 0.78960 0.24996 0.25945 0.00000
S379 S 0.74593 0.20704 0.23148 0.00000
S380 S 0.81593 0.22473 0.23983 0.00000
S381 S 0.73481 0.26798 0.27568 0.00000
S382 S 0.80480 0.28567 0.28402 0.00000
C383 C 0.78362 0.20117 0.22499 0.00000
C384 C 0.83676 0.81955 0.31560 0.00000
C385 C 0.79961 0.77923 0.31299 0.00000
C386 C 0.79443 0.79993 0.33684 0.00000
S387 S 0.77659 0.74393 0.30189 0.00000
S388 S 0.76386 0.79481 0.36051 0.00000
S389 S 0.83019 0.78435 0.28932 0.00000
S390 S 0.81746 0.83523 0.34795 0.00000
C391 C 0.75728 0.75961 0.33424 0.00000
C392 C 0.25195 0.76527 0.20642 0.00000
C393 C 0.28621 0.74491 0.24397 0.00000
C394 C 0.30265 0.76081 0.22890 0.00000
S395 S 0.30287 0.72496 0.27521 0.00000
S396 S 0.34328 0.76403 0.23815 0.00000
S397 S 0.24558 0.74169 0.23472 0.00000
S398 S 0.28598 0.78076 0.19767 0.00000
C399 C 0.33691 0.74045 0.26646 0.00000
C400 C 0.29163 0.30003 0.25144 0.00000
C401 C 0.26409 0.25533 0.22217 0.00000
C402 C 0.24595 0.27759 0.22139 0.00000
S403 S 0.25262 0.21646 0.20273 0.00000
S404 S 0.20803 0.27118 0.20081 0.00000
S405 S 0.30200 0.26174 0.24274 0.00000
S406 S 0.25741 0.31646 0.24082 0.00000
C407 C 0.21841 0.23289 0.19211 0.00000
C408 C 0.77393 0.78375 0.79553 0.00000
C409 C 0.73768 0.74173 0.78313 0.00000
C410 C 0.74655 0.74539 0.75598 0.00000
S411 S 0.70975 0.71196 0.78541 0.00000
S412 S 0.73157 0.72095 0.71867 0.00000
S413 S 0.75266 0.76617 0.82044 0.00000
S414 S 0.77448 0.77516 0.75370 0.00000
C415 C 0.71030 0.70336 0.74358 0.00000
C416 C 0.27182 0.68891 0.73993 0.00000
C417 C 0.25233 0.72165 0.78283 0.00000
C418 C 0.25268 0.73750 0.75986 0.00000
S419 S 0.23905 0.73752 0.82077 0.00000
S420 S 0.23992 0.77648 0.76429 0.00000
S421 S 0.26510 0.68267 0.77840 0.00000
S422 S 0.26596 0.72163 0.72192 0.00000
C423 C 0.23320 0.77025 0.80276 0.00000
C424 C 0.18943 0.21748 0.74429 0.00000
C425 C 0.22668 0.24806 0.72625 0.00000
C426 C 0.20577 0.24154 0.70236 0.00000
S427 S 0.26000 0.27125 0.72346 0.00000
S428 S 0.20859 0.25522 0.66472 0.00000
S429 S 0.22386 0.23439 0.76389 0.00000
S430 S 0.17245 0.21836 0.70516 0.00000
C431 C 0.24302 0.27213 0.68433 0.00000
C432 C 0.85359 0.00621 0.78805 0.00000
C433 C 0.85860 0.96899 0.82298 0.00000
C434 C 0.84641 0.95426 0.79555 0.00000
S435 S 0.86676 0.94966 0.85728 0.00000
S436 S 0.83679 0.91346 0.78986 0.00000
S437 S 0.86822 0.00979 0.82867 0.00000
S438 S 0.83825 0.97360 0.76125 0.00000
C439 C 0.85142 0.91704 0.83048 0.00000
C440 C 0.04117 0.14054 0.14218 0.00000
C441 C 0.99250 0.11787 0.14383 0.00000
C442 C 0.98783 0.14166 0.13018 0.00000
S443 S 0.96150 0.09325 0.15030 0.00000
S444 S 0.95003 0.15174 0.11674 0.00000
S445 S 0.03030 0.10779 0.15727 0.00000
S446 S 0.01883 0.16628 0.12372 0.00000
C447 C 0.93916 0.11898 0.13184 0.00000
C448 C 0.88937 0.97212 0.21709 0.00000
C449 C 0.87289 0.02315 0.21720 0.00000
C450 C 0.86664 0.00906 0.18792 0.00000
S451 S 0.86423 0.06307 0.22875 0.00000
S452 S 0.84885 0.02846 0.15677 0.00000
S453 S 0.89068 0.00375 0.24835 0.00000
S454 S 0.87530 0.96913 0.17637 0.00000
C455 C 0.85016 0.06009 0.18803 0.00000
C456 C 0.96724 0.87991 0.26397 0.00000
C457 C 0.00226 0.87117 0.22512 0.00000
C458 C 0.01029 0.85413 0.24631 0.00000
S459 S 0.02272 0.87194 0.19061 0.00000
S460 S 0.04246 0.83007 0.24269 0.00000
S461 S 0.97008 0.89522 0.22873 0.00000
S462 S 0.98982 0.85336 0.28081 0.00000
C463 C 0.04530 0.84539 0.20745 0.00000
C464 C 0.12863 0.03132 0.16985 0.00000
C465 C 0.13910 0.98274 0.18530 0.00000
C466 C 0.13763 0.97817 0.15429 0.00000
S467 S 0.14675 0.95177 0.20788 0.00000
S468 S 0.14312 0.94054 0.13164 0.00000
S469 S 0.13362 0.02037 0.20795 0.00000
S470 S 0.12998 0.00914 0.13171 0.00000
C471 C 0.14810 0.92959 0.16974 0.00000
C472 C 0.96111 0.86162 0.88009 0.00000
C473 C 0.01094 0.87925 0.87494 0.00000
C474 C 0.01128 0.84961 0.86979 0.00000
S475 S 0.04441 0.90274 0.87349 0.00000
S476 S 0.04525 0.82990 0.86083 0.00000
S477 S 0.97697 0.89896 0.88391 0.00000
S478 S 0.97781 0.82611 0.87125 0.00000
C479 C 0.06111 0.86724 0.86464 0.00000
C480 C 0.17534 0.83115 0.95666 0.00000
C481 C 0.16292 0.83441 0.01040 0.00000
C482 C 0.19038 0.82589 0.01117 0.00000
S483 S 0.14377 0.83996 0.04635 0.00000
S484 S 0.21129 0.81900 0.04823 0.00000
S485 S 0.14201 0.84130 0.97334 0.00000
S486 S 0.20953 0.82034 0.97523 0.00000
C487 C 0.17796 0.82916 0.06492 0.00000
C488 C 0.84113 0.11963 0.01146 0.00000
C489 C 0.84764 0.11285 0.95564 0.00000
C490 C 0.81937 0.10698 0.95674 0.00000
S491 S 0.86310 0.11059 0.91758 0.00000
S492 S 0.79362 0.09615 0.92027 0.00000
S493 S 0.87339 0.12369 0.99212 0.00000
S494 S 0.80391 0.10924 0.99480 0.00000
C495 C 0.82587 0.10021 0.90093 0.00000
C496 C 0.87751 0.85645 0.00317 0.00000
C497 C 0.87386 0.85175 0.05790 0.00000
C498 C 0.85512 0.87231 0.05149 0.00000
S499 S 0.87873 0.84052 0.09731 0.00000
S500 S 0.83268 0.89107 0.08155 0.00000
S501 S 0.89629 0.83300 0.02783 0.00000
S502 S 0.85024 0.88354 0.01207 0.00000
C503 C 0.85147 0.86761 0.10621 0.00000
C504 C 0.11533 0.20277 0.95455 0.00000
C505 C 0.10862 0.19887 0.00883 0.00000
C506 C 0.13342 0.18561 0.00337 0.00000
S507 S 0.09437 0.20144 0.04756 0.00000
S508 S 0.15534 0.16883 0.03415 0.00000
S509 S 0.08670 0.21565 0.97804 0.00000
S510 S 0.14766 0.18304 0.96463 0.00000
C511 C 0.12671 0.18171 0.05764 0.00000
C512 C 0.63457 0.66890 0.59840 0.00000
C513 C 0.65529 0.70167 0.56611 0.00000
C514 C 0.63276 0.68672 0.54810 0.00000
S515 S 0.67809 0.72963 0.55139 0.00000
S516 S 0.62271 0.69287 0.50712 0.00000
S517 S 0.66534 0.69552 0.60709 0.00000
S518 S 0.60996 0.65876 0.56282 0.00000
C519 C 0.65348 0.71949 0.51581 0.00000
C520 C 0.36786 0.65123 0.44538 0.00000
C521 C 0.37705 0.64025 0.49875 0.00000
C522 C 0.35581 0.65959 0.49951 0.00000
S523 S 0.39157 0.62527 0.53444 0.00000
S524 S 0.33935 0.67279 0.53631 0.00000
S525 S 0.39350 0.62704 0.46195 0.00000
S526 S 0.34128 0.67456 0.46382 0.00000
C527 C 0.36500 0.64860 0.55288 0.00000
C528 C 0.32633 0.37664 0.39425 0.00000
C529 C 0.30517 0.38283 0.44410 0.00000
C530 C 0.30780 0.35362 0.43580 0.00000
S531 S 0.28988 0.39845 0.48097 0.00000
S532 S 0.29633 0.32665 0.46057 0.00000
S533 S 0.31664 0.40980 0.41933 0.00000
S534 S 0.32310 0.33800 0.39893 0.00000
C535 C 0.28664 0.35981 0.48565 0.00000
C536 C 0.53479 0.62008 0.65778 0.00000
C537 C 0.48226 0.62916 0.65602 0.00000
C538 C 0.48564 0.60351 0.66658 0.00000
S539 S 0.44551 0.64533 0.65069 0.00000
S540 S 0.45382 0.58228 0.67667 0.00000
S541 S 0.51408 0.65038 0.64593 0.00000
S542 S 0.52238 0.58733 0.67191 0.00000
C543 C 0.43311 0.61259 0.66483 0.00000
C544 C 0.32462 0.54010 0.67339 0.00000
C545 C 0.33630 0.48996 0.64843 0.00000
C546 C 0.30780 0.48856 0.65102 0.00000
S547 S 0.35534 0.45670 0.63059 0.00000
S548 S 0.28529 0.45326 0.63693 0.00000
S549 S 0.35881 0.52527 0.66251 0.00000
S550 S 0.28876 0.52183 0.66886 0.00000
C551 C 0.31948 0.43842 0.62606 0.00000
C552 C 0.38611 0.32864 0.65292 0.00000
C553 C 0.42979 0.31302 0.62781 0.00000
C554 C 0.43761 0.31525 0.65836 0.00000
S555 S 0.45617 0.30161 0.59891 0.00000
S556 S 0.47540 0.30709 0.67401 0.00000
S557 S 0.39199 0.32117 0.61217 0.00000
S558 S 0.41122 0.32665 0.68726 0.00000
C559 C 0.48128 0.29963 0.63326 0.00000
C560 C 0.60921 0.49981 0.67361 0.00000
C561 C 0.61147 0.44898 0.64448 0.00000
C562 C 0.59987 0.44589 0.67041 0.00000
S563 S 0.61755 0.41592 0.61468 0.00000
S564 S 0.58902 0.40832 0.67841 0.00000
S565 S 0.62232 0.48655 0.63648 0.00000
S566 S 0.59379 0.47895 0.70021 0.00000
C567 C 0.60213 0.39506 0.64128 0.00000
C568 C 0.59907 0.39723 0.33699 0.00000
C569 C 0.54713 0.38127 0.32486 0.00000
C570 C 0.54976 0.40674 0.31400 0.00000
S571 S 0.51106 0.36052 0.32093 0.00000
S572 S 0.51754 0.42313 0.29424 0.00000
S573 S 0.57935 0.36487 0.34462 0.00000
S574 S 0.58582 0.42748 0.31793 0.00000
C575 C 0.49782 0.39077 0.30186 0.00000
C576 C 0.70151 0.51334 0.35298 0.00000
C577 C 0.67989 0.55924 0.33993 0.00000
C578 C 0.70599 0.56768 0.35554 0.00000
S579 S 0.65508 0.58689 0.32500 0.00000
S580 S 0.71923 0.60763 0.36339 0.00000
S581 S 0.66665 0.51929 0.33208 0.00000
S582 S 0.73080 0.54003 0.37046 0.00000
C583 C 0.68436 0.61358 0.34249 0.00000
C584 C 0.48001 0.68546 0.32564 0.00000
C585 C 0.53216 0.67631 0.33712 0.00000
C586 C 0.52543 0.69545 0.36154 0.00000
S587 S 0.56995 0.66265 0.33529 0.00000
S588 S 0.55342 0.70968 0.39532 0.00000
S589 S 0.50416 0.66208 0.30334 0.00000
S590 S 0.48763 0.70912 0.36337 0.00000
C591 C 0.57758 0.68630 0.37302 0.00000
C592 C 0.38222 0.47394 0.32139 0.00000
C593 C 0.40567 0.52405 0.33744 0.00000
C594 C 0.38346 0.52692 0.31611 0.00000
S595 S 0.43018 0.55672 0.35663 0.00000
S596 S 0.37559 0.56376 0.30419 0.00000
S597 S 0.41353 0.48720 0.34936 0.00000
S598 S 0.35895 0.49424 0.29692 0.00000
C599 C 0.40691 0.57703 0.33216 0.00000
C600 C 0.65263 0.30828 0.53071 0.00000
C601 C 0.67126 0.30610 0.47978 0.00000
C602 C 0.66604 0.33463 0.48915 0.00000
S603 S 0.68587 0.29346 0.44176 0.00000
S604 S 0.67303 0.36358 0.46479 0.00000
S605 S 0.66427 0.27716 0.50414 0.00000
S606 S 0.65143 0.34727 0.52716 0.00000
C607 C 0.68467 0.33245 0.43821 0.00000
C608 C 0.13380 0.08029 0.79865 0.00000
C609 C 0.15428 0.03269 0.80793 0.00000
C610 C 0.12750 0.03236 0.81666 0.00000
S611 S 0.17858 0.00010 0.81077 0.00000
S612 S 0.11276 0.99990 0.83223 0.00000
S613 S 0.16902 0.06515 0.79236 0.00000
S614 S 0.10320 0.06432 0.81382 0.00000
C615 C 0.14798 0.98476 0.82595 0.00000
C616 C 0.92700 0.10993 0.76244 0.00000
C617 C 0.97462 0.13712 0.77662 0.00000
C618 C 0.97406 0.11726 0.79577 0.00000
S619 S 0.00695 0.16323 0.77867 0.00000
S620 S 0.00559 0.11441 0.82574 0.00000
S621 S 0.94310 0.13996 0.74665 0.00000
S622 S 0.94173 0.09114 0.79371 0.00000
C623 C 0.02169 0.14444 0.80994 0.00000
loop_
_geom_bond_atom_site_label_1
_geom_bond_atom_site_label_2
_geom_bond_distance
_geom_bond_site_symmetry_2
_ccdc_geom_bond_type
O0 Zn8 2.048 . S
O0 C16 1.192 . A
O1 Zn7 2.113 . S
O1 C19 1.205 . A
O2 Zn5 2.017 . S
O2 C19 1.232 . A
Zn3 O14 2.017 . S
Zn3 O20 2.063 . S
Zn3 O21 2.000 . S
O4 Zn7 2.358 . S
O4 C16 1.370 . A
Zn5 O17 2.000 . S
Zn5 O20 2.063 . S
C6 O10 1.192 . A
C6 O15 1.370 . A
Zn7 O13 2.113 . S
Zn7 O15 2.358 . S
Zn7 O20 1.878 . S
Zn8 O10 2.048 . S
Zn8 O18 2.047 . S
Zn8 O20 1.961 . S
Zn8 O22 2.047 . S
C9 O13 1.205 . A
C9 O14 1.232 . A
C11 O21 1.236 . A
C11 O22 1.206 . A
C12 O17 1.236 . A
C12 O18 1.206 . A
O23 Zn31 2.048 . S
O23 C39 1.192 . A
O24 Zn30 2.113 . S
O24 C42 1.205 . A
O25 Zn28 2.017 . S
O25 C42 1.232 . A
Zn26 O37 2.017 . S
Zn26 O43 2.063 . S
Zn26 O44 2.000 . S
O27 Zn30 2.358 . S
O27 C39 1.370 . A
Zn28 O40 2.000 . S
Zn28 O43 2.063 . S
C29 O33 1.192 . A
C29 O38 1.370 . A
Zn30 O36 2.113 . S
Zn30 O38 2.358 . S
Zn30 O43 1.878 . S
Zn31 O33 2.048 . S
Zn31 O41 2.047 . S
Zn31 O43 1.961 . S
Zn31 O45 2.047 . S
C32 O36 1.205 . A
C32 O37 1.232 . A
C34 O44 1.236 . A
C34 O45 1.206 . A
C35 O40 1.236 . A
C35 O41 1.206 . A
O46 Zn54 2.048 . S
O46 C62 1.192 . A
O47 Zn53 2.113 . S
O47 C65 1.205 . A
O48 Zn51 2.017 . S
O48 C65 1.232 . A
Zn49 O60 2.017 . S
Zn49 O66 2.063 . S
Zn49 O67 2.000 . S
O50 Zn53 2.358 . S
O50 C62 1.370 . A
Zn51 O63 2.000 . S
Zn51 O66 2.063 . S
C52 O56 1.192 . A
C52 O61 1.370 . A
Zn53 O59 2.113 . S
Zn53 O61 2.358 . S
Zn53 O66 1.878 . S
Zn54 O56 2.048 . S
Zn54 O64 2.047 . S
Zn54 O66 1.961 . S
Zn54 O68 2.047 . S
C55 O59 1.205 . A
C55 O60 1.232 . A
C57 O67 1.236 . A
C57 O68 1.206 . A
C58 O63 1.236 . A
C58 O64 1.206 . A
O69 Zn77 2.048 . S
O69 C85 1.192 . A
O70 Zn76 2.113 . S
O70 C88 1.205 . A
O71 Zn74 2.017 . S
O71 C88 1.232 . A
Zn72 O83 2.017 . S
Zn72 O89 2.063 . S
Zn72 O90 2.000 . S
O73 Zn76 2.358 . S
O73 C85 1.370 . A
Zn74 O86 2.000 . S
Zn74 O89 2.063 . S
C75 O79 1.192 . A
C75 O84 1.370 . A
Zn76 O82 2.113 . S
Zn76 O84 2.358 . S
Zn76 O89 1.878 . S
Zn77 O79 2.048 . S
Zn77 O87 2.047 . S
Zn77 O89 1.961 . S
Zn77 O91 2.047 . S
C78 O82 1.205 . A
C78 O83 1.232 . A
C80 O90 1.236 . A
C80 O91 1.206 . A
C81 O86 1.236 . A
C81 O87 1.206 . A
O92 Zn100 2.048 . S
O92 C108 1.192 . A
O93 Zn99 2.113 . S
O93 C111 1.205 . A
O94 Zn97 2.017 . S
O94 C111 1.232 . A
Zn95 O106 2.017 . S
Zn95 O112 2.063 . S
Zn95 O113 2.000 . S
O96 Zn99 2.358 . S
O96 C108 1.370 . A
Zn97 O109 2.000 . S
Zn97 O112 2.063 . S
C98 O102 1.192 . A
C98 O107 1.370 . A
Zn99 O105 2.113 . S
Zn99 O107 2.358 . S
Zn99 O112 1.878 . S
Zn100 O102 2.048 . S
Zn100 O110 2.047 . S
Zn100 O112 1.961 . S
Zn100 O114 2.047 . S
C101 O105 1.205 . A
C101 O106 1.232 . A
C103 O113 1.236 . A
C103 O114 1.206 . A
C104 O109 1.236 . A
C104 O110 1.206 . A
O115 Zn123 2.048 . S
O115 C131 1.192 . A
O116 Zn122 2.113 . S
O116 C134 1.205 . A
O117 Zn120 2.017 . S
O117 C134 1.232 . A
Zn118 O129 2.017 . S
Zn118 O135 2.063 . S
Zn118 O136 2.000 . S
O119 Zn122 2.358 . S
O119 C131 1.370 . A
Zn120 O132 2.000 . S
Zn120 O135 2.063 . S
C121 O125 1.192 . A
C121 O130 1.370 . A
Zn122 O128 2.113 . S
Zn122 O130 2.358 . S
Zn122 O135 1.878 . S
Zn123 O125 2.048 . S
Zn123 O133 2.047 . S
Zn123 O135 1.961 . S
Zn123 O137 2.047 . S
C124 O128 1.205 . A
C124 O129 1.232 . A
C126 O136 1.236 . A
C126 O137 1.206 . A
C127 O132 1.236 . A
C127 O133 1.206 . A
O138 Zn146 2.048 . S
O138 C154 1.192 . A
O139 Zn145 2.113 . S
O139 C157 1.205 . A
O140 Zn143 2.017 . S
O140 C157 1.232 . A
Zn141 O152 2.017 . S
Zn141 O158 2.063 . S
Zn141 O159 2.000 . S
O142 Zn145 2.358 . S
O142 C154 1.370 . A
Zn143 O155 2.000 . S
Zn143 O158 2.063 . S
C144 O148 1.192 . A
C144 O153 1.370 . A
Zn145 O151 2.113 . S
Zn145 O153 2.358 . S
Zn145 O158 1.878 . S
Zn146 O148 2.048 . S
Zn146 O156 2.047 . S
Zn146 O158 1.961 . S
Zn146 O160 2.047 . S
C147 O151 1.205 . A
C147 O152 1.232 . A
C149 O159 1.236 . A
C149 O160 1.206 . A
C150 O155 1.236 . A
C150 O156 1.206 . A
O161 Zn169 2.048 . S
O161 C177 1.192 . A
O162 Zn168 2.113 . S
O162 C180 1.205 . A
O163 Zn166 2.017 . S
O163 C180 1.232 . A
Zn164 O175 2.017 . S
Zn164 O181 2.063 . S
Zn164 O182 2.000 . S
O165 Zn168 2.358 . S
O165 C177 1.370 . A
Zn166 O178 2.000 . S
Zn166 O181 2.063 . S
C167 O171 1.192 . A
C167 O176 1.370 . A
Zn168 O174 2.113 . S
Zn168 O176 2.358 . S
Zn168 O181 1.878 . S
Zn169 O171 2.048 . S
Zn169 O179 2.047 . S
Zn169 O181 1.961 . S
Zn169 O183 2.047 . S
C170 O174 1.205 . A
C170 O175 1.232 . A
C172 O182 1.236 . A
C172 O183 1.206 . A
C173 O178 1.236 . A
C173 O179 1.206 . A
O184 Zn192 2.048 . S
O184 C200 1.192 . A
O185 Zn191 2.113 . S
O185 C203 1.205 . A
O186 Zn189 2.017 . S
O186 C203 1.232 . A
Zn187 O198 2.017 . S
Zn187 O204 2.063 . S
Zn187 O205 2.000 . S
O188 Zn191 2.358 . S
O188 C200 1.370 . A
Zn189 O201 2.000 . S
Zn189 O204 2.063 . S
C190 O194 1.192 . A
C190 O199 1.370 . A
Zn191 O197 2.113 . S
Zn191 O199 2.358 . S
Zn191 O204 1.878 . S
Zn192 O194 2.048 . S
Zn192 O202 2.047 . S
Zn192 O204 1.961 . S
Zn192 O206 2.047 . S
C193 O197 1.205 . A
C193 O198 1.232 . A
C195 O205 1.236 . A
C195 O206 1.206 . A
C196 O201 1.236 . A
C196 O202 1.206 . A
O207 Zn215 2.048 . S
O207 C223 1.192 . A
O208 Zn214 2.113 . S
O208 C226 1.205 . A
O209 Zn212 2.017 . S
O209 C226 1.232 . A
Zn210 O221 2.017 . S
Zn210 O227 2.063 . S
Zn210 O228 2.000 . S
O211 Zn214 2.358 . S
O211 C223 1.370 . A
Zn212 O224 2.000 . S
Zn212 O227 2.063 . S
C213 O217 1.192 . A
C213 O222 1.370 . A
Zn214 O220 2.113 . S
Zn214 O222 2.358 . S
Zn214 O227 1.878 . S
Zn215 O217 2.048 . S
Zn215 O225 2.047 . S
Zn215 O227 1.961 . S
Zn215 O229 2.047 . S
C216 O220 1.205 . A
C216 O221 1.232 . A
C218 O228 1.236 . A
C218 O229 1.206 . A
C219 O224 1.236 . A
C219 O225 1.206 . A
O230 Zn238 2.048 . S
O230 C246 1.192 . A
O231 Zn237 2.113 . S
O231 C249 1.205 . A
O232 Zn235 2.017 . S
O232 C249 1.232 . A
Zn233 O244 2.017 . S
Zn233 O250 2.063 . S
Zn233 O251 2.000 . S
O234 Zn237 2.358 . S
O234 C246 1.370 . A
Zn235 O247 2.000 . S
Zn235 O250 2.063 . S
C236 O240 1.192 . A
C236 O245 1.370 . A
Zn237 O243 2.113 . S
Zn237 O245 2.358 . S
Zn237 O250 1.878 . S
Zn238 O240 2.048 . S
Zn238 O248 2.047 . S
Zn238 O250 1.961 . S
Zn238 O252 2.047 . S
C239 O243 1.205 . A
C239 O244 1.232 . A
C241 O251 1.236 . A
C241 O252 1.206 . A
C242 O247 1.236 . A
C242 O248 1.206 . A
O253 Zn261 2.048 . S
O253 C269 1.192 . A
O254 Zn260 2.113 . S
O254 C272 1.205 . A
O255 Zn258 2.017 . S
O255 C272 1.232 . A
Zn256 O267 2.017 . S
Zn256 O273 2.063 . S
Zn256 O274 2.000 . S
O257 Zn260 2.358 . S
O257 C269 1.370 . A
Zn258 O270 2.000 . S
Zn258 O273 2.063 . S
C259 O263 1.192 . A
C259 O268 1.370 . A
Zn260 O266 2.113 . S
Zn260 O268 2.358 . S
Zn260 O273 1.878 . S
Zn261 O263 2.048 . S
Zn261 O271 2.047 . S
Zn261 O273 1.961 . S
Zn261 O275 2.047 . S
C262 O266 1.205 . A
C262 O267 1.232 . A
C264 O274 1.236 . A
C264 O275 1.206 . A
C265 O270 1.236 . A
C265 O271 1.206 . A
O276 Zn284 2.048 . S
O276 C292 1.192 . A
O277 Zn283 2.113 . S
O277 C295 1.205 . A
O278 Zn281 2.017 . S
O278 C295 1.232 . A
Zn279 O290 2.017 . S
Zn279 O296 2.063 . S
Zn279 O297 2.000 . S
O280 Zn283 2.358 . S
O280 C292 1.370 . A
Zn281 O293 2.000 . S
Zn281 O296 2.063 . S
C282 O286 1.192 . A
C282 O291 1.370 . A
Zn283 O289 2.113 . S
Zn283 O291 2.358 . S
Zn283 O296 1.878 . S
Zn284 O286 2.048 . S
Zn284 O294 2.047 . S
Zn284 O296 1.961 . S
Zn284 O298 2.047 . S
C285 O289 1.205 . A
C285 O290 1.232 . A
C287 O297 1.236 . A
C287 O298 1.206 . A
C288 O293 1.236 . A
C288 O294 1.206 . A
O299 Zn307 2.048 . S
O299 C315 1.192 . A
O300 Zn306 2.113 . S
O300 C318 1.205 . A
O301 Zn304 2.017 . S
O301 C318 1.232 . A
Zn302 O313 2.017 . S
Zn302 O319 2.063 . S
Zn302 O320 2.000 . S
O303 Zn306 2.358 . S
O303 C315 1.370 . A
Zn304 O316 2.000 . S
Zn304 O319 2.063 . S
C305 O309 1.192 . A
C305 O314 1.370 . A
Zn306 O312 2.113 . S
Zn306 O314 2.358 . S
Zn306 O319 1.878 . S
Zn307 O309 2.048 . S
Zn307 O317 2.047 . S
Zn307 O319 1.961 . S
Zn307 O321 2.047 . S
C308 O312 1.205 . A
C308 O313 1.232 . A
C310 O320 1.236 . A
C310 O321 1.206 . A
C311 O316 1.236 . A
C311 O317 1.206 . A
O322 Zn330 2.048 . S
O322 C338 1.192 . A
O323 Zn329 2.113 . S
O323 C341 1.205 . A
O324 Zn327 2.017 . S
O324 C341 1.232 . A
Zn325 O336 2.017 . S
Zn325 O342 2.063 . S
Zn325 O343 2.000 . S
O326 Zn329 2.358 . S
O326 C338 1.370 . A
Zn327 O339 2.000 . S
Zn327 O342 2.063 . S
C328 O332 1.192 . A
C328 O337 1.370 . A
Zn329 O335 2.113 . S
Zn329 O337 2.358 . S
Zn329 O342 1.878 . S
Zn330 O332 2.048 . S
Zn330 O340 2.047 . S
Zn330 O342 1.961 . S
Zn330 O344 2.047 . S
C331 O335 1.205 . A
C331 O336 1.232 . A
C333 O343 1.236 . A
C333 O344 1.206 . A
C334 O339 1.236 . A
C334 O340 1.206 . A
O345 Zn353 2.048 . S
O345 C361 1.192 . A
O346 Zn352 2.113 . S
O346 C364 1.205 . A
O347 Zn350 2.017 . S
O347 C364 1.232 . A
Zn348 O359 2.017 . S
Zn348 O365 2.063 . S
Zn348 O366 2.000 . S
O349 Zn352 2.358 . S
O349 C361 1.370 . A
Zn350 O362 2.000 . S
Zn350 O365 2.063 . S
C351 O355 1.192 . A
C351 O360 1.370 . A
Zn352 O358 2.113 . S
Zn352 O360 2.358 . S
Zn352 O365 1.878 . S
Zn353 O355 2.048 . S
Zn353 O363 2.047 . S
Zn353 O365 1.961 . S
Zn353 O367 2.047 . S
C354 O358 1.205 . A
C354 O359 1.232 . A
C356 O366 1.236 . A
C356 O367 1.206 . A
C357 O362 1.236 . A
C357 O363 1.206 . A
C368 S373 1.738 . A
C368 S374 1.738 . A
C369 C370 1.279 . A
C369 S371 1.795 . A
C369 S373 1.795 . A
C370 S372 1.795 . A
C370 S374 1.795 . A
S371 C375 1.738 . A
S372 C375 1.738 . A
C376 S381 1.738 . A
C376 S382 1.738 . A
C377 C378 1.279 . A
C377 S379 1.795 . A
C377 S381 1.795 . A
C378 S380 1.795 . A
C378 S382 1.795 . A
S379 C383 1.738 . A
S380 C383 1.738 . A
C384 S389 1.738 . A
C384 S390 1.738 . A
C385 C386 1.279 . A
C385 S387 1.795 . A
C385 S389 1.795 . A
C386 S388 1.795 . A
C386 S390 1.795 . A
S387 C391 1.738 . A
S388 C391 1.738 . A
C392 S397 1.738 . A
C392 S398 1.738 . A
C393 C394 1.279 . A
C393 S395 1.795 . A
C393 S397 1.795 . A
C394 S396 1.795 . A
C394 S398 1.795 . A
S395 C399 1.738 . A
S396 C399 1.738 . A
C400 S405 1.738 . A
C400 S406 1.738 . A
C401 C402 1.279 . A
C401 S403 1.795 . A
C401 S405 1.795 . A
C402 S404 1.795 . A
C402 S406 1.795 . A
S403 C407 1.738 . A
S404 C407 1.738 . A
C408 S413 1.738 . A
C408 S414 1.738 . A
C409 C410 1.279 . A
C409 S411 1.795 . A
C409 S413 1.795 . A
C410 S412 1.795 . A
C410 S414 1.795 . A
S411 C415 1.738 . A
S412 C415 1.738 . A
C416 S421 1.738 . A
C416 S422 1.738 . A
C417 C418 1.279 . A
C417 S419 1.795 . A
C417 S421 1.795 . A
C418 S420 1.795 . A
C418 S422 1.795 . A
S419 C423 1.738 . A
S420 C423 1.738 . A
C424 S429 1.738 . A
C424 S430 1.738 . A
C425 C426 1.279 . A
C425 S427 1.795 . A
C425 S429 1.795 . A
C426 S428 1.795 . A
C426 S430 1.795 . A
S427 C431 1.738 . A
S428 C431 1.738 . A
C432 S437 1.738 . A
C432 S438 1.738 1_545 A
C433 C434 1.279 . A
C433 S435 1.795 . A
C433 S437 1.795 1_565 A
C434 S436 1.795 . A
C434 S438 1.795 . A
S435 C439 1.738 . A
S436 C439 1.738 . A
C440 S445 1.738 . A
C440 S446 1.738 . A
C441 C442 1.279 . A
C441 S443 1.795 . A
C441 S445 1.795 1_655 A
C442 S444 1.795 . A
C442 S446 1.795 1_655 A
S443 C447 1.738 . A
S444 C447 1.738 . A
C448 S453 1.738 1_565 A
C448 S454 1.738 . A
C449 C450 1.279 . A
C449 S451 1.795 . A
C449 S453 1.795 . A
C450 S452 1.795 . A
C450 S454 1.795 1_545 A
S451 C455 1.738 . A
S452 C455 1.738 . A
C456 S461 1.738 . A
C456 S462 1.738 . A
C457 C458 1.279 . A
C457 S459 1.795 . A
C457 S461 1.795 1_455 A
C458 S460 1.795 . A
C458 S462 1.795 1_455 A
S459 C463 1.738 . A
S460 C463 1.738 . A
C464 S469 1.738 . A
C464 S470 1.738 . A
C465 C466 1.279 . A
C465 S467 1.795 . A
C465 S469 1.795 1_565 A
C466 S468 1.795 . A
C466 S470 1.795 1_565 A
S467 C471 1.738 . A
S468 C471 1.738 . A
C472 S477 1.738 . A
C472 S478 1.738 . A
C473 C474 1.279 . A
C473 S475 1.795 . A
C473 S477 1.795 1_455 A
C474 S476 1.795 . A
C474 S478 1.795 1_455 A
S475 C479 1.738 . A
S476 C479 1.738 . A
C480 S485 1.738 . A
C480 S486 1.738 . A
C481 C482 1.279 . A
C481 S483 1.795 . A
C481 S485 1.795 1_554 A
C482 S484 1.795 . A
C482 S486 1.795 1_554 A
S483 C487 1.738 . A
S484 C487 1.738 . A
C488 S493 1.738 1_554 A
C488 S494 1.738 1_554 A
C489 C490 1.279 . A
C489 S491 1.795 . A
C489 S493 1.795 . A
C490 S492 1.795 . A
C490 S494 1.795 . A
S491 C495 1.738 . A
S492 C495 1.738 . A
C496 S501 1.738 . A
C496 S502 1.738 . A
C497 C498 1.279 . A
C497 S499 1.795 . A
C497 S501 1.795 . A
C498 S500 1.795 . A
C498 S502 1.795 . A
S499 C503 1.738 . A
S500 C503 1.738 . A
C504 S509 1.738 . A
C504 S510 1.738 . A
C505 C506 1.279 . A
C505 S507 1.795 . A
C505 S509 1.795 1_554 A
C506 S508 1.795 . A
C506 S510 1.795 1_554 A
S507 C511 1.738 . A
S508 C511 1.738 . A
C512 S517 1.738 . A
C512 S518 1.738 . A
C513 C514 1.279 . A
C513 S515 1.795 . A
C513 S517 1.795 . A
C514 S516 1.795 . A
C514 S518 1.795 . A
S515 C519 1.738 . A
S516 C519 1.738 . A
C520 S525 1.738 . A
C520 S526 1.738 . A
C521 C522 1.279 . A
C521 S523 1.795 . A
C521 S525 1.795 . A
C522 S524 1.795 . A
C522 S526 1.795 . A
S523 C527 1.738 . A
S524 C527 1.738 . A
C528 S533 1.738 . A
C528 S534 1.738 . A
C529 C530 1.279 . A
C529 S531 1.795 . A
C529 S533 1.795 . A
C530 S532 1.795 . A
C530 S534 1.795 . A
S531 C535 1.738 . A
S532 C535 1.738 . A
C536 S541 1.738 . A
C536 S542 1.738 . A
C537 C538 1.279 . A
C537 S539 1.795 . A
C537 S541 1.795 . A
C538 S540 1.795 . A
C538 S542 1.795 . A
S539 C543 1.738 . A
S540 C543 1.738 . A
C544 S549 1.738 . A
C544 S550 1.738 . A
C545 C546 1.279 . A
C545 S547 1.795 . A
C545 S549 1.795 . A
C546 S548 1.795 . A
C546 S550 1.795 . A
S547 C551 1.738 . A
S548 C551 1.738 . A
C552 S557 1.738 . A
C552 S558 1.738 . A
C553 C554 1.279 . A
C553 S555 1.795 . A
C553 S557 1.795 . A
C554 S556 1.795 . A
C554 S558 1.795 . A
S555 C559 1.738 . A
S556 C559 1.738 . A
C560 S565 1.738 . A
C560 S566 1.738 . A
C561 C562 1.279 . A
C561 S563 1.795 . A
C561 S565 1.795 . A
C562 S564 1.795 . A
C562 S566 1.795 . A
S563 C567 1.738 . A
S564 C567 1.738 . A
C568 S573 1.738 . A
C568 S574 1.738 . A
C569 C570 1.279 . A
C569 S571 1.795 . A
C569 S573 1.795 . A
C570 S572 1.795 . A
C570 S574 1.795 . A
S571 C575 1.738 . A
S572 C575 1.738 . A
C576 S581 1.738 . A
C576 S582 1.738 . A
C577 C578 1.279 . A
C577 S579 1.795 . A
C577 S581 1.795 . A
C578 S580 1.795 . A
C578 S582 1.795 . A
S579 C583 1.738 . A
S580 C583 1.738 . A
C584 S589 1.738 . A
C584 S590 1.738 . A
C585 C586 1.279 . A
C585 S587 1.795 . A
C585 S589 1.795 . A
C586 S588 1.795 . A
C586 S590 1.795 . A
S587 C591 1.738 . A
S588 C591 1.738 . A
C592 S597 1.738 . A
C592 S598 1.738 . A
C593 C594 1.279 . A
C593 S595 1.795 . A
C593 S597 1.795 . A
C594 S596 1.795 . A
C594 S598 1.795 . A
S595 C599 1.738 . A
S596 C599 1.738 . A
C600 S605 1.738 . A
C600 S606 1.738 . A
C601 C602 1.279 . A
C601 S603 1.795 . A
C601 S605 1.795 . A
C602 S604 1.795 . A
C602 S606 1.795 . A
S603 C607 1.738 . A
S604 C607 1.738 . A
C608 S613 1.738 . A
C608 S614 1.738 . A
C609 C610 1.279 . A
C609 S611 1.818 . A
C609 S613 1.795 . A
C610 S612 1.796 1_545 A
C610 S614 1.795 . A
S611 C615 1.726 1_545 A
S612 C615 1.738 . A
C616 S621 1.738 . A
C616 S622 1.738 . A
C617 C618 1.279 . A
C617 S619 1.795 1_655 A
C617 S621 1.795 . A
C618 S620 1.795 1_655 A
C618 S622 1.795 . A
S619 C623 1.738 . A
S620 C623 1.738 . A
C368 C341 1.807 . S
C375 C19 1.598 . S
C376 C364 1.753 . S
C383 C42 1.738 . S
C384 C65 1.466 . S
C391 C203 1.551 . S
C392 C88 1.685 . S
C399 C226 1.520 . S
C400 C249 1.336 . S
C407 C111 1.244 . S
C408 C134 1.377 . S
C415 C272 1.380 . S
C416 C295 1.631 . S
C423 C157 1.765 . S
C424 C180 1.551 . S
C431 C318 1.573 . S
C432 C16 1.002 . S
C439 C121 1.067 . S
C440 C108 1.288 . S
C447 C39 1.282 . S
C448 C62 1.162 . S
C455 C29 1.228 . S
C456 C52 1.293 . S
C463 C80 1.572 . S
C464 C103 1.569 . S
C471 C85 1.368 . S
C472 C131 1.669 . S
C479 C154 1.702 . S
C480 C144 1.905 . S
C487 C75 1.868 . S
C488 C34 1.435 . S
C495 C11 1.415 . S
C496 C126 1.507 1_554 S
C503 C57 1.477 . S
C504 C172 1.647 . S
C511 C98 1.555 . S
C512 C259 1.309 . S
C519 C195 1.472 . S
C520 C218 1.104 . S
C527 C287 1.078 . S
C528 C236 1.683 . S
C535 C310 1.746 . S
C536 C269 1.164 . S
C543 C292 1.088 . S
C544 C282 1.328 . S
C551 C315 1.367 . S
C552 C305 1.575 . S
C559 C333 1.831 . S
C560 C264 1.781 . S
C567 C338 1.598 . S
C568 C361 1.601 . S
C575 C241 1.802 . S
C576 C356 1.855 . S
C583 C190 1.620 . S
C584 C213 1.355 . S
C591 C200 1.453 . S
C592 C246 1.093 . S
C599 C223 1.057 . S
C600 C328 2.026 . S
C607 C351 2.044 . S
C608 C167 1.613 . S
C615 C149 1.947 . S
C616 C6 1.626 . S
C623 C177 1.768 . S
