# Generated by pormake.
# Topology pcb, (4)-cn, num edge types: 1
# Building blocks:
#     Node 0, Type 0, BuildingBlock: N68, # of connection points: 4
#     Node 1, Type 0, BuildingBlock: N68, # of connection points: 4
#     Node 2, Type 0, BuildingBlock: N68, # of connection points: 4
#     Node 3, Type 0, BuildingBlock: N68, # of connection points: 4
#     Node 4, Type 0, BuildingBlock: N68, # of connection points: 4
#     Node 5, Type 0, BuildingBlock: N68, # of connection points: 4
#     Node 6, Type 0, BuildingBlock: N68, # of connection points: 4
#     Node 7, Type 0, BuildingBlock: N68, # of connection points: 4
#     Node 8, Type 0, BuildingBlock: N68, # of connection points: 4
#     Node 9, Type 0, BuildingBlock: N68, # of connection points: 4
#     Node 10, Type 0, BuildingBlock: N68, # of connection points: 4
#     Node 11, Type 0, BuildingBlock: N68, # of connection points: 4
#     Node 12, Type 0, BuildingBlock: N68, # of connection points: 4
#     Node 13, Type 0, BuildingBlock: N68, # of connection points: 4
#     Node 14, Type 0, BuildingBlock: N68, # of connection points: 4
#     Node 15, Type 0, BuildingBlock: N68, # of connection points: 4
#     Edge 16, Type (0, 0), BuildingBlock: E202, # of connection points: 2
#     Edge 17, Type (0, 0), BuildingBlock: E202, # of connection points: 2
#     Edge 18, Type (0, 0), BuildingBlock: E202, # of connection points: 2
#     Edge 19, Type (0, 0), BuildingBlock: E202, # of connection points: 2
#     Edge 20, Type (0, 0), BuildingBlock: E202, # of connection points: 2
#     Edge 21, Type (0, 0), BuildingBlock: E202, # of connection points: 2
#     Edge 22, Type (0, 0), BuildingBlock: E202, # of connection points: 2
#     Edge 23, Type (0, 0), BuildingBlock: E202, # of connection points: 2
#     Edge 24, Type (0, 0), BuildingBlock: E202, # of connection points: 2
#     Edge 25, Type (0, 0), BuildingBlock: E202, # of connection points: 2
#     Edge 26, Type (0, 0), BuildingBlock: E202, # of connection points: 2
#     Edge 27, Type (0, 0), BuildingBlock: E202, # of connection points: 2
#     Edge 28, Type (0, 0), BuildingBlock: E202, # of connection points: 2
#     Edge 29, Type (0, 0), BuildingBlock: E202, # of connection points: 2
#     Edge 30, Type (0, 0), BuildingBlock: E202, # of connection points: 2
#     Edge 31, Type (0, 0), BuildingBlock: E202, # of connection points: 2
#     Edge 32, Type (0, 0), BuildingBlock: E202, # of connection points: 2
#     Edge 33, Type (0, 0), BuildingBlock: E202, # of connection points: 2
#     Edge 34, Type (0, 0), BuildingBlock: E202, # of connection points: 2
#     Edge 35, Type (0, 0), BuildingBlock: E202, # of connection points: 2
#     Edge 36, Type (0, 0), BuildingBlock: E202, # of connection points: 2
#     Edge 37, Type (0, 0), BuildingBlock: E202, # of connection points: 2
#     Edge 38, Type (0, 0), BuildingBlock: E202, # of connection points: 2
#     Edge 39, Type (0, 0), BuildingBlock: E202, # of connection points: 2
#     Edge 40, Type (0, 0), BuildingBlock: E202, # of connection points: 2
#     Edge 41, Type (0, 0), BuildingBlock: E202, # of connection points: 2
#     Edge 42, Type (0, 0), BuildingBlock: E202, # of connection points: 2
#     Edge 43, Type (0, 0), BuildingBlock: E202, # of connection points: 2
#     Edge 44, Type (0, 0), BuildingBlock: E202, # of connection points: 2
#     Edge 45, Type (0, 0), BuildingBlock: E202, # of connection points: 2
#     Edge 46, Type (0, 0), BuildingBlock: E202, # of connection points: 2
#     Edge 47, Type (0, 0), BuildingBlock: E202, # of connection points: 2
# Relax obj value: 0.201
# Max RMSD: 0.098
# Mean RMSD: 0.087
data_pcb+N68+E202
_symmetry_space_group_name_H-M    P1
_symmetry_Int_Tables_number       1
_symmetry_cell_setting            triclinic
loop_
_symmetry_equiv_pos_as_xyz
'x, y, z'
_cell_length_a     33.324
_cell_length_b     36.239
_cell_length_c     36.239
_cell_angle_alpha  93.350
_cell_angle_beta   90.602
_cell_angle_gamma  90.602
loop_
_atom_site_label
_atom_site_type_symbol
_atom_site_fract_x
_atom_site_fract_y
_atom_site_fract_z
_atom_type_partial_charge
N0 N 0.82438 0.07148 0.82704 0.00000
N1 N 0.85737 0.12301 0.84165 0.00000
O2 O 0.85466 0.20831 0.92249 0.00000
O3 O 0.82519 0.15563 0.90992 0.00000
Co4 Co 0.86381 0.17442 0.87009 0.00000
O5 O 0.92960 0.16834 0.87860 0.00000
O6 O 0.90370 0.19384 0.83163 0.00000
H7 H 0.85052 0.21924 0.80214 0.00000
H8 H 0.76304 0.18967 0.86392 0.00000
H9 H 0.73301 0.21432 0.80961 0.00000
H10 H 0.81875 0.10096 0.87531 0.00000
H11 H 0.88674 0.12097 0.79257 0.00000
H12 H 0.85081 0.06394 0.77595 0.00000
C13 C 0.82898 0.18477 0.93006 0.00000
C14 C 0.82489 0.21468 0.81088 0.00000
C15 C 0.77715 0.19877 0.84434 0.00000
C16 C 0.76031 0.21221 0.81457 0.00000
C17 C 0.93359 0.18123 0.84771 0.00000
C18 C 0.83124 0.09907 0.85244 0.00000
C19 C 0.86818 0.10968 0.80737 0.00000
C20 C 0.84854 0.07833 0.79792 0.00000
N21 N 0.79122 0.22238 0.79270 0.00000
N22 N 0.81785 0.20011 0.84219 0.00000
N23 N 0.82454 0.07017 0.16075 0.00000
N24 N 0.84118 0.12110 0.13461 0.00000
O25 O 0.93066 0.20111 0.14446 0.00000
O26 O 0.91618 0.14892 0.16728 0.00000
Co27 Co 0.87305 0.17075 0.13297 0.00000
O28 O 0.88156 0.16469 0.07209 0.00000
O29 O 0.83140 0.19313 0.09756 0.00000
H30 H 0.80043 0.22006 0.14821 0.00000
H31 H 0.86756 0.18552 0.22674 0.00000
H32 H 0.80946 0.21356 0.25588 0.00000
H33 H 0.87756 0.09642 0.16862 0.00000
H34 H 0.78766 0.12260 0.10709 0.00000
H35 H 0.76876 0.06627 0.13548 0.00000
C36 C 0.93860 0.17680 0.16626 0.00000
C37 C 0.81003 0.21467 0.17148 0.00000
C38 C 0.84639 0.19607 0.21435 0.00000
C39 C 0.81455 0.21137 0.23066 0.00000
C40 C 0.84831 0.17970 0.06921 0.00000
C41 C 0.85261 0.09617 0.15682 0.00000
C42 C 0.80364 0.11014 0.12337 0.00000
C43 C 0.79290 0.07920 0.13887 0.00000
N44 N 0.79078 0.22329 0.20289 0.00000
N45 N 0.84374 0.19793 0.17704 0.00000
N46 N 0.83034 0.93243 0.17741 0.00000
N47 N 0.85907 0.88004 0.16066 0.00000
O48 O 0.84667 0.79711 0.07785 0.00000
O49 O 0.82144 0.85057 0.09251 0.00000
Co50 Co 0.86063 0.82917 0.13078 0.00000
O51 O 0.92630 0.83295 0.12081 0.00000
O52 O 0.90097 0.80714 0.16764 0.00000
H53 H 0.84760 0.78297 0.19772 0.00000
H54 H 0.75932 0.81765 0.13905 0.00000
H55 H 0.73028 0.79264 0.19333 0.00000
H56 H 0.82039 0.90452 0.12862 0.00000
H57 H 0.89088 0.87957 0.20893 0.00000
H58 H 0.85969 0.93752 0.22790 0.00000
C59 C 0.82228 0.82185 0.07156 0.00000
C60 C 0.82190 0.78877 0.18976 0.00000
C61 C 0.77373 0.80746 0.15800 0.00000
C62 C 0.75744 0.79383 0.18776 0.00000
C63 C 0.93089 0.81904 0.15118 0.00000
C64 C 0.83409 0.90528 0.15117 0.00000
C65 C 0.87241 0.89198 0.19492 0.00000
C66 C 0.85540 0.92383 0.20567 0.00000
N67 N 0.78865 0.78187 0.20853 0.00000
N68 N 0.81435 0.80448 0.15908 0.00000
N69 N 0.17623 0.80782 0.05571 0.00000
N70 N 0.14553 0.82348 0.10739 0.00000
O71 O 0.15476 0.90474 0.19213 0.00000
O72 O 0.18200 0.89118 0.13931 0.00000
Co73 Co 0.14203 0.85237 0.15867 0.00000
O74 O 0.07651 0.86230 0.15301 0.00000
O75 O 0.10089 0.81496 0.17865 0.00000
H76 H 0.15336 0.78447 0.20387 0.00000
H77 H 0.24290 0.84405 0.17322 0.00000
H78 H 0.27101 0.78928 0.19803 0.00000
H79 H 0.18509 0.85611 0.08481 0.00000
H80 H 0.11373 0.77509 0.10591 0.00000
H81 H 0.14710 0.75732 0.04871 0.00000
C82 C 0.18007 0.91157 0.16835 0.00000
C83 C 0.17927 0.79260 0.19906 0.00000
C84 C 0.22812 0.82486 0.18256 0.00000
C85 C 0.24391 0.79483 0.19609 0.00000
C86 C 0.07142 0.83161 0.16614 0.00000
C87 C 0.17144 0.83353 0.08318 0.00000
C88 C 0.13265 0.78940 0.09438 0.00000
C89 C 0.15087 0.77931 0.06294 0.00000
N90 N 0.21226 0.77374 0.20663 0.00000
N91 N 0.18739 0.82364 0.18422 0.00000
N92 N 0.18821 0.05052 0.16821 0.00000
N93 N 0.15768 0.10158 0.15537 0.00000
O94 O 0.16692 0.18217 0.07959 0.00000
O95 O 0.19398 0.12987 0.09019 0.00000
Co96 Co 0.15429 0.15144 0.12968 0.00000
O97 O 0.08870 0.14548 0.11833 0.00000
O98 O 0.11342 0.17356 0.16779 0.00000
H99 H 0.16615 0.20025 0.20080 0.00000
H100 H 0.25526 0.16610 0.14056 0.00000
H101 H 0.28375 0.19374 0.19747 0.00000
H102 H 0.19699 0.07711 0.12186 0.00000
H103 H 0.12610 0.10275 0.20324 0.00000
H104 H 0.15929 0.04627 0.21788 0.00000
C105 C 0.19210 0.15789 0.07161 0.00000
C106 C 0.19200 0.19491 0.19276 0.00000
C107 C 0.24062 0.17652 0.16015 0.00000
C108 C 0.25661 0.19160 0.19136 0.00000
C109 C 0.08381 0.16026 0.14984 0.00000
C110 C 0.18344 0.07671 0.14415 0.00000
C111 C 0.14491 0.09038 0.18847 0.00000
C112 C 0.16302 0.05936 0.19683 0.00000
N113 N 0.22511 0.20338 0.21266 0.00000
N114 N 0.19990 0.17839 0.16084 0.00000
N115 N 0.81035 0.93909 0.84308 0.00000
N116 N 0.82645 0.88824 0.86936 0.00000
O117 O 0.91473 0.80896 0.86061 0.00000
O118 O 0.90083 0.86108 0.83768 0.00000
Co119 Co 0.85762 0.83884 0.87135 0.00000
O120 O 0.86665 0.84487 0.93236 0.00000
O121 O 0.81590 0.81606 0.90615 0.00000
H122 H 0.78418 0.78896 0.85502 0.00000
H123 H 0.85127 0.82418 0.77749 0.00000
H124 H 0.79255 0.79571 0.74749 0.00000
H125 H 0.86294 0.91328 0.83590 0.00000
H126 H 0.77310 0.88626 0.89614 0.00000
H127 H 0.75480 0.94250 0.86758 0.00000
C128 C 0.92286 0.83338 0.83897 0.00000
C129 C 0.79370 0.79447 0.83190 0.00000
C130 C 0.83003 0.81344 0.78957 0.00000
C131 C 0.79785 0.79790 0.77279 0.00000
C132 C 0.83320 0.82959 0.93475 0.00000
C133 C 0.83808 0.91331 0.84735 0.00000
C134 C 0.78914 0.89888 0.88010 0.00000
C135 C 0.77873 0.92977 0.86451 0.00000
N136 N 0.77411 0.78574 0.80021 0.00000
N137 N 0.82762 0.81149 0.82684 0.00000
N138 N 0.18706 0.83975 0.93090 0.00000
N139 N 0.17094 0.86796 0.88104 0.00000
O140 O 0.08127 0.86235 0.80109 0.00000
O141 O 0.09530 0.83746 0.85233 0.00000
Co142 Co 0.13910 0.87184 0.83164 0.00000
O143 O 0.13183 0.93274 0.83980 0.00000
O144 O 0.18144 0.90736 0.81044 0.00000
H145 H 0.21137 0.85703 0.78177 0.00000
H146 H 0.14267 0.77835 0.81367 0.00000
H147 H 0.20015 0.74914 0.78456 0.00000
H148 H 0.13390 0.83367 0.90456 0.00000
H149 H 0.22500 0.89467 0.88036 0.00000
H150 H 0.24334 0.86398 0.93553 0.00000
C151 C 0.07290 0.83982 0.82461 0.00000
C152 C 0.20130 0.83372 0.78637 0.00000
C153 C 0.16408 0.79076 0.80353 0.00000
C154 C 0.19558 0.77441 0.78763 0.00000
C155 C 0.16513 0.93558 0.82486 0.00000
C156 C 0.15907 0.84506 0.90516 0.00000
C157 C 0.20870 0.87821 0.89227 0.00000
C158 C 0.21913 0.86145 0.92257 0.00000
N159 N 0.21989 0.80223 0.77665 0.00000
N160 N 0.16749 0.82815 0.80295 0.00000
N161 N 0.18064 0.17068 0.93486 0.00000
N162 N 0.14792 0.15725 0.88294 0.00000
O163 O 0.15166 0.07883 0.79548 0.00000
O164 O 0.18088 0.09015 0.84849 0.00000
Co165 Co 0.14189 0.13021 0.83080 0.00000
O166 O 0.07617 0.12092 0.83646 0.00000
O167 O 0.10165 0.16892 0.81244 0.00000
H168 H 0.15458 0.19968 0.78807 0.00000
H169 H 0.24264 0.13776 0.81601 0.00000
H170 H 0.27217 0.19312 0.79306 0.00000
H171 H 0.18684 0.12326 0.90406 0.00000
H172 H 0.11803 0.20606 0.88633 0.00000
H173 H 0.15367 0.22136 0.94381 0.00000
C174 C 0.17737 0.07080 0.81881 0.00000
C175 C 0.18029 0.19103 0.79244 0.00000
C176 C 0.22834 0.15750 0.80746 0.00000
C177 C 0.24491 0.18785 0.79495 0.00000
C178 C 0.07189 0.15219 0.82448 0.00000
C179 C 0.17411 0.14599 0.90657 0.00000
C180 C 0.13672 0.19108 0.89720 0.00000
C181 C 0.15619 0.19981 0.92881 0.00000
N182 N 0.21379 0.20975 0.78537 0.00000
N183 N 0.18763 0.15932 0.80608 0.00000
N184 N 0.67562 0.67297 0.42852 0.00000
N185 N 0.64263 0.65835 0.37699 0.00000
O186 O 0.64534 0.57751 0.29169 0.00000
O187 O 0.67481 0.59008 0.34437 0.00000
Co188 Co 0.63619 0.62991 0.32558 0.00000
O189 O 0.57040 0.62141 0.33166 0.00000
O190 O 0.59630 0.66837 0.30616 0.00000
H191 H 0.64948 0.69786 0.28075 0.00000
H192 H 0.73696 0.63608 0.31033 0.00000
H193 H 0.76699 0.69039 0.28568 0.00000
H194 H 0.68125 0.62469 0.39904 0.00000
H195 H 0.61326 0.70743 0.37903 0.00000
H196 H 0.64919 0.72405 0.43606 0.00000
C197 C 0.67102 0.56994 0.31523 0.00000
C198 C 0.67511 0.68913 0.28532 0.00000
C199 C 0.72285 0.65567 0.30123 0.00000
C200 C 0.73969 0.68544 0.28778 0.00000
C201 C 0.56641 0.65229 0.31877 0.00000
C202 C 0.66876 0.64756 0.40093 0.00000
C203 C 0.63182 0.69263 0.39032 0.00000
C204 C 0.65146 0.70208 0.42167 0.00000
N205 N 0.70878 0.70730 0.27762 0.00000
N206 N 0.68215 0.65781 0.29988 0.00000
N207 N 0.31936 0.56514 0.32932 0.00000
N208 N 0.35208 0.61706 0.34275 0.00000
O209 O 0.34834 0.70452 0.42117 0.00000
O210 O 0.31912 0.65151 0.40986 0.00000
Co211 Co 0.35811 0.66920 0.36979 0.00000
O212 O 0.42383 0.66354 0.37908 0.00000
O213 O 0.39835 0.68756 0.33108 0.00000
H214 H 0.34542 0.71193 0.30032 0.00000
H215 H 0.25736 0.68399 0.36224 0.00000
H216 H 0.22783 0.70694 0.30688 0.00000
H217 H 0.31316 0.59594 0.37674 0.00000
H218 H 0.38197 0.61367 0.29394 0.00000
H219 H 0.34633 0.55619 0.27864 0.00000
C220 C 0.32263 0.68119 0.42920 0.00000
C221 C 0.31971 0.70756 0.30897 0.00000
C222 C 0.27166 0.69254 0.34250 0.00000
C223 C 0.25509 0.70505 0.31215 0.00000
C224 C 0.42811 0.67552 0.34781 0.00000
C225 C 0.32589 0.59342 0.35402 0.00000
C226 C 0.36328 0.60280 0.30892 0.00000
C227 C 0.34381 0.57119 0.30019 0.00000
N228 N 0.28621 0.71463 0.29025 0.00000
N229 N 0.31237 0.69392 0.34068 0.00000
N230 N 0.31179 0.33179 0.44948 0.00000
N231 N 0.34232 0.34463 0.39842 0.00000
O232 O 0.33308 0.42041 0.31783 0.00000
O233 O 0.30602 0.40981 0.37013 0.00000
Co234 Co 0.34571 0.37032 0.34856 0.00000
O235 O 0.41130 0.38167 0.35452 0.00000
O236 O 0.38658 0.33221 0.32644 0.00000
H237 H 0.33384 0.29920 0.29975 0.00000
H238 H 0.24474 0.35944 0.33390 0.00000
H239 H 0.21625 0.30253 0.30626 0.00000
H240 H 0.30301 0.37814 0.42288 0.00000
H241 H 0.37390 0.29676 0.39725 0.00000
H242 H 0.34071 0.28212 0.45373 0.00000
C243 C 0.30790 0.42839 0.34211 0.00000
C244 C 0.30800 0.30724 0.30509 0.00000
C245 C 0.25938 0.33985 0.32348 0.00000
C246 C 0.24339 0.30864 0.30840 0.00000
C247 C 0.41619 0.35016 0.33974 0.00000
C248 C 0.31656 0.35585 0.42329 0.00000
C249 C 0.35509 0.31153 0.40962 0.00000
C250 C 0.33698 0.30317 0.44064 0.00000
N251 N 0.27489 0.28734 0.29662 0.00000
N252 N 0.30010 0.33916 0.32161 0.00000
N253 N 0.68965 0.65692 0.56091 0.00000
N254 N 0.67355 0.63064 0.61176 0.00000
O255 O 0.58527 0.63939 0.69104 0.00000
O256 O 0.59917 0.66232 0.63892 0.00000
Co257 Co 0.64238 0.62865 0.66116 0.00000
O258 O 0.63335 0.56764 0.65513 0.00000
O259 O 0.68410 0.59385 0.68394 0.00000
H260 H 0.71582 0.64498 0.71104 0.00000
H261 H 0.64873 0.72251 0.67582 0.00000
H262 H 0.70745 0.75251 0.70429 0.00000
H263 H 0.63706 0.66410 0.58672 0.00000
H264 H 0.72690 0.60386 0.61374 0.00000
H265 H 0.74520 0.63242 0.55750 0.00000
C266 C 0.57714 0.66103 0.66663 0.00000
C267 C 0.70630 0.66810 0.70553 0.00000
C268 C 0.66997 0.71043 0.68656 0.00000
C269 C 0.70215 0.72721 0.70210 0.00000
C270 C 0.66680 0.56525 0.67041 0.00000
C271 C 0.66192 0.65265 0.58670 0.00000
C272 C 0.71086 0.61990 0.60112 0.00000
C273 C 0.72127 0.63549 0.57023 0.00000
N274 N 0.72589 0.69979 0.71426 0.00000
N275 N 0.67238 0.67316 0.68851 0.00000
N276 N 0.31294 0.56910 0.66025 0.00000
N277 N 0.32906 0.61896 0.63204 0.00000
O278 O 0.41873 0.69891 0.63765 0.00000
O279 O 0.40470 0.64767 0.66254 0.00000
Co280 Co 0.36090 0.66836 0.62816 0.00000
O281 O 0.36817 0.66020 0.56726 0.00000
O282 O 0.31856 0.68956 0.59264 0.00000
H283 H 0.28863 0.71823 0.64297 0.00000
H284 H 0.35733 0.68633 0.72165 0.00000
H285 H 0.29985 0.71544 0.75086 0.00000
H286 H 0.36610 0.59544 0.66633 0.00000
H287 H 0.27500 0.61964 0.60533 0.00000
H288 H 0.25666 0.56447 0.63602 0.00000
C289 C 0.42710 0.67539 0.66018 0.00000
C290 C 0.29870 0.71363 0.66628 0.00000
C291 C 0.33592 0.69647 0.70924 0.00000
C292 C 0.30442 0.71237 0.72559 0.00000
C293 C 0.33487 0.67514 0.56442 0.00000
C294 C 0.34093 0.59484 0.65494 0.00000
C295 C 0.29130 0.60773 0.62179 0.00000
C296 C 0.28087 0.57742 0.63855 0.00000
N297 N 0.28011 0.72335 0.69777 0.00000
N298 N 0.33251 0.69705 0.67185 0.00000
N299 N 0.32377 0.44429 0.69218 0.00000
N300 N 0.35447 0.39261 0.67652 0.00000
O301 O 0.34524 0.30787 0.59526 0.00000
O302 O 0.31800 0.36069 0.60882 0.00000
Co303 Co 0.35797 0.34133 0.64763 0.00000
O304 O 0.42349 0.34699 0.63770 0.00000
O305 O 0.39911 0.32135 0.68504 0.00000
H306 H 0.34664 0.29613 0.71553 0.00000
H307 H 0.25710 0.32679 0.65595 0.00000
H308 H 0.22899 0.30197 0.71072 0.00000
H309 H 0.31491 0.41519 0.64389 0.00000
H310 H 0.38627 0.39409 0.72491 0.00000
H311 H 0.35290 0.45129 0.74268 0.00000
C312 C 0.31993 0.33165 0.58843 0.00000
C313 C 0.32073 0.30094 0.70740 0.00000
C314 C 0.27188 0.31744 0.67514 0.00000
C315 C 0.25609 0.30391 0.70517 0.00000
C316 C 0.42858 0.33386 0.66839 0.00000
C317 C 0.32856 0.41682 0.66647 0.00000
C318 C 0.36735 0.40562 0.71060 0.00000
C319 C 0.34913 0.43706 0.72069 0.00000
N320 N 0.28774 0.29337 0.72626 0.00000
N321 N 0.31261 0.31578 0.67636 0.00000
N322 N 0.66966 0.32259 0.56757 0.00000
N323 N 0.64093 0.33934 0.61996 0.00000
O324 O 0.65333 0.42215 0.70289 0.00000
O325 O 0.67856 0.40749 0.64943 0.00000
Co326 Co 0.63937 0.36922 0.67083 0.00000
O327 O 0.57370 0.37919 0.66705 0.00000
O328 O 0.59903 0.33236 0.69286 0.00000
H329 H 0.65240 0.30228 0.71703 0.00000
H330 H 0.74068 0.36095 0.68235 0.00000
H331 H 0.76972 0.30667 0.70735 0.00000
H332 H 0.67961 0.37138 0.59548 0.00000
H333 H 0.60912 0.29107 0.62043 0.00000
H334 H 0.64031 0.27210 0.56248 0.00000
C335 C 0.67772 0.42844 0.67815 0.00000
C336 C 0.67810 0.31024 0.71123 0.00000
C337 C 0.72627 0.34200 0.69254 0.00000
C338 C 0.74256 0.31224 0.70617 0.00000
C339 C 0.56911 0.34882 0.68096 0.00000
C340 C 0.66591 0.34883 0.59472 0.00000
C341 C 0.62759 0.30508 0.60802 0.00000
C342 C 0.64460 0.29433 0.57617 0.00000
N343 N 0.71135 0.29147 0.71813 0.00000
N344 N 0.68565 0.34092 0.69552 0.00000
N345 N 0.67546 0.33925 0.42983 0.00000
N346 N 0.65882 0.36539 0.37890 0.00000
O347 O 0.56934 0.35554 0.29889 0.00000
O348 O 0.58382 0.33272 0.35108 0.00000
Co349 Co 0.62695 0.36703 0.32925 0.00000
O350 O 0.61844 0.42791 0.33531 0.00000
O351 O 0.66860 0.40244 0.30687 0.00000
H352 H 0.69957 0.35178 0.27994 0.00000
H353 H 0.63243 0.27326 0.31448 0.00000
H354 H 0.69054 0.24412 0.28644 0.00000
H355 H 0.62244 0.33138 0.40358 0.00000
H356 H 0.71234 0.39291 0.37740 0.00000
H357 H 0.73124 0.36452 0.43373 0.00000
C358 C 0.56140 0.33374 0.32320 0.00000
C359 C 0.68997 0.32852 0.28533 0.00000
C360 C 0.65360 0.28565 0.30393 0.00000
C361 C 0.68545 0.26934 0.28863 0.00000
C362 C 0.65169 0.43079 0.32030 0.00000
C363 C 0.64739 0.34318 0.40383 0.00000
C364 C 0.69636 0.37663 0.38986 0.00000
C365 C 0.70710 0.36113 0.42080 0.00000
N366 N 0.70922 0.29711 0.27671 0.00000
N367 N 0.65626 0.32296 0.30207 0.00000
H368 H 0.76103 0.32300 0.75033 0.00000
H369 H 0.80873 0.28927 0.78594 0.00000
C370 C 0.73056 0.27560 0.73523 0.00000
C371 C 0.75966 0.29757 0.75227 0.00000
C372 C 0.78720 0.27803 0.77299 0.00000
C373 C 0.77938 0.24094 0.77234 0.00000
S374 S 0.73748 0.22999 0.74492 0.00000
H375 H 0.71124 0.31119 0.21542 0.00000
H376 H 0.74495 0.26874 0.17224 0.00000
C377 C 0.73020 0.28257 0.25875 0.00000
C378 C 0.72581 0.29108 0.22267 0.00000
C379 C 0.74545 0.26655 0.19769 0.00000
C380 C 0.76537 0.23916 0.21428 0.00000
S381 S 0.75900 0.24350 0.26177 0.00000
H382 H 0.75947 0.73272 0.17784 0.00000
H383 H 0.71171 0.69514 0.20940 0.00000
C384 C 0.77102 0.76406 0.22512 0.00000
C385 C 0.75359 0.73657 0.20277 0.00000
C386 C 0.72603 0.71475 0.22109 0.00000
C387 C 0.72224 0.72503 0.25772 0.00000
S388 S 0.75290 0.76295 0.26952 0.00000
H389 H 0.17563 0.75363 0.25465 0.00000
H390 H 0.21349 0.73069 0.30578 0.00000
C391 C 0.22556 0.75388 0.22302 0.00000
C392 C 0.20292 0.74874 0.25359 0.00000
C393 C 0.22484 0.73534 0.28314 0.00000
C394 C 0.26442 0.72976 0.27553 0.00000
S395 S 0.27481 0.74203 0.23105 0.00000
H396 H 0.32122 0.24638 0.28103 0.00000
H397 H 0.30538 0.20244 0.22986 0.00000
C398 C 0.26359 0.26402 0.28246 0.00000
C399 C 0.29573 0.24361 0.27054 0.00000
C400 C 0.28650 0.21809 0.24098 0.00000
C401 C 0.24717 0.21839 0.23009 0.00000
S402 S 0.22128 0.25148 0.25658 0.00000
H403 H 0.75870 0.72808 0.82224 0.00000
H404 H 0.75211 0.67781 0.77541 0.00000
C405 C 0.75488 0.76594 0.78323 0.00000
C406 C 0.75578 0.73171 0.79719 0.00000
C407 C 0.75183 0.70261 0.77006 0.00000
C408 C 0.74753 0.71415 0.73507 0.00000
S409 S 0.74917 0.76204 0.73574 0.00000
H410 H 0.20819 0.70584 0.71851 0.00000
H411 H 0.17851 0.75283 0.75963 0.00000
C412 C 0.25986 0.73584 0.71658 0.00000
C413 C 0.22157 0.72747 0.72668 0.00000
C414 C 0.20444 0.75464 0.75059 0.00000
C415 C 0.22946 0.78399 0.75935 0.00000
S416 S 0.27487 0.77809 0.73693 0.00000
H417 H 0.24696 0.18962 0.72985 0.00000
H418 H 0.29177 0.23338 0.70278 0.00000
C419 C 0.23061 0.22832 0.76947 0.00000
C420 C 0.25036 0.21390 0.73915 0.00000
C421 C 0.27621 0.23929 0.72342 0.00000
C422 C 0.27635 0.27352 0.74127 0.00000
S423 S 0.24435 0.27403 0.77873 0.00000
H424 H 0.83679 0.04551 0.88712 0.00000
H425 H 0.84645 0.97940 0.88794 0.00000
C426 C 0.81171 0.03967 0.83577 0.00000
C427 C 0.82925 0.02898 0.86765 0.00000
C428 C 0.83471 0.99068 0.86816 0.00000
C429 C 0.82115 0.97152 0.83686 0.00000
S430 S 0.80193 0.00169 0.80589 0.00000
H431 H 0.05723 0.19259 0.11406 0.00000
H432 H 0.98572 0.20392 0.11460 0.00000
C433 C 0.05380 0.16715 0.16240 0.00000
C434 C 0.04045 0.18527 0.13266 0.00000
C435 C 0.99990 0.19171 0.13293 0.00000
C436 C 0.98005 0.17837 0.16267 0.00000
S437 S 0.01442 0.15803 0.19123 0.00000
H438 H 0.79217 0.97275 0.22703 0.00000
H439 H 0.79180 0.03948 0.22535 0.00000
C440 C 0.82019 0.96797 0.17752 0.00000
C441 C 0.80285 0.98535 0.20773 0.00000
C442 C 0.80276 0.02399 0.20680 0.00000
C443 C 0.82031 0.03673 0.17606 0.00000
S444 S 0.83656 0.00010 0.14742 0.00000
H445 H 0.96311 0.86805 0.14596 0.00000
H446 H 0.03558 0.86871 0.14128 0.00000
C447 C 0.96417 0.81809 0.16854 0.00000
C448 C 0.97918 0.84908 0.15362 0.00000
C449 C 0.02116 0.84950 0.15103 0.00000
C450 C 0.03885 0.81903 0.16420 0.00000
S451 S 0.00264 0.78894 0.17945 0.00000
H452 H 0.17020 0.01769 0.10941 0.00000
H453 H 0.15061 0.95326 0.11118 0.00000
C454 C 0.19749 0.01648 0.15968 0.00000
C455 C 0.17644 0.00329 0.12902 0.00000
C456 C 0.16522 0.96594 0.13001 0.00000
C457 C 0.17779 0.94997 0.16125 0.00000
S458 S 0.20338 0.98211 0.19028 0.00000
H459 H 0.96210 0.89219 0.86493 0.00000
H460 H 0.03321 0.89893 0.85342 0.00000
C461 C 0.96168 0.84023 0.84069 0.00000
C462 C 0.97732 0.87374 0.85319 0.00000
C463 C 0.01852 0.87758 0.84662 0.00000
C464 C 0.03504 0.84700 0.82931 0.00000
S465 S 0.99857 0.81306 0.82038 0.00000
H466 H 0.22550 0.87177 0.96737 0.00000
H467 H 0.23701 0.85851 0.03135 0.00000
C468 C 0.18444 0.83002 0.96111 0.00000
C469 C 0.21225 0.85294 0.97881 0.00000
C470 C 0.21880 0.84532 0.01590 0.00000
C471 C 0.19590 0.81671 0.02716 0.00000
S472 S 0.16620 0.79844 0.99083 0.00000
H473 H 0.80269 0.23906 0.04255 0.00000
H474 H 0.79462 0.23712 0.97595 0.00000
C475 C 0.82988 0.18911 0.03956 0.00000
C476 C 0.81138 0.21953 0.02700 0.00000
C477 C 0.80684 0.21844 0.98842 0.00000
C478 C 0.82206 0.18737 0.97091 0.00000
S479 S 0.84173 0.15860 0.00300 0.00000
H480 H 0.78917 0.76905 0.96030 0.00000
H481 H 0.78579 0.76967 0.02707 0.00000
C482 C 0.81618 0.81965 0.96314 0.00000
C483 C 0.79881 0.78854 0.97582 0.00000
C484 C 0.79698 0.78886 0.01450 0.00000
C485 C 0.81319 0.82003 0.03194 0.00000
S486 S 0.83037 0.84984 0.99990 0.00000
H487 H 0.23291 0.21191 0.97429 0.00000
H488 H 0.23966 0.20296 0.03979 0.00000
C489 C 0.19449 0.16810 0.96772 0.00000
C490 C 0.21964 0.19322 0.98594 0.00000
C491 C 0.22342 0.18810 0.02389 0.00000
C492 C 0.20102 0.15923 0.03528 0.00000
S493 S 0.17531 0.13756 0.99805 0.00000
H494 H 0.70975 0.61249 0.52696 0.00000
H495 H 0.71940 0.61298 0.46082 0.00000
C496 C 0.68523 0.66359 0.52804 0.00000
C497 C 0.70242 0.63214 0.51307 0.00000
C498 C 0.70788 0.63240 0.47475 0.00000
C499 C 0.69467 0.66386 0.45984 0.00000
S500 S 0.67578 0.69403 0.49414 0.00000
H501 H 0.34888 0.73418 0.47163 0.00000
H502 H 0.35254 0.73472 0.53846 0.00000
C503 C 0.32104 0.68397 0.46904 0.00000
C504 C 0.33899 0.71509 0.48509 0.00000
C505 C 0.34098 0.71544 0.52380 0.00000
C506 C 0.32432 0.68478 0.53791 0.00000
S507 S 0.30650 0.65461 0.50242 0.00000
H508 H 0.27274 0.28267 0.48170 0.00000
H509 H 0.27811 0.28135 0.54833 0.00000
C510 C 0.30242 0.33196 0.48281 0.00000
C511 C 0.28529 0.30124 0.49653 0.00000
C512 C 0.28853 0.30043 0.53510 0.00000
C513 C 0.30843 0.33032 0.55139 0.00000
S514 S 0.32275 0.36037 0.51827 0.00000
H515 H 0.53616 0.64320 0.71779 0.00000
H516 H 0.46348 0.64396 0.71610 0.00000
C517 C 0.53866 0.66315 0.66665 0.00000
C518 C 0.52141 0.65103 0.69786 0.00000
C519 C 0.47932 0.65159 0.69691 0.00000
C520 C 0.46381 0.66441 0.66514 0.00000
S521 S 0.50218 0.67533 0.63557 0.00000
H522 H 0.34660 0.55195 0.72672 0.00000
H523 H 0.34918 0.48676 0.73792 0.00000
C524 C 0.31684 0.54073 0.67811 0.00000
C525 C 0.33574 0.53356 0.71055 0.00000
C526 C 0.33711 0.49581 0.71707 0.00000
C527 C 0.31902 0.47362 0.68992 0.00000
S528 S 0.30060 0.50005 0.65526 0.00000
H529 H 0.46093 0.31334 0.62680 0.00000
H530 H 0.53340 0.30872 0.62636 0.00000
C531 C 0.46204 0.33046 0.68117 0.00000
C532 C 0.47702 0.31892 0.64751 0.00000
C533 C 0.51900 0.31637 0.64724 0.00000
C534 C 0.53673 0.32620 0.68056 0.00000
S535 S 0.50055 0.33817 0.71304 0.00000
H536 H 0.71307 0.53957 0.72998 0.00000
H537 H 0.71645 0.47278 0.72911 0.00000
C538 C 0.68399 0.53685 0.68036 0.00000
C539 C 0.70264 0.52409 0.71081 0.00000
C540 C 0.70447 0.48540 0.71034 0.00000
C541 C 0.68699 0.46804 0.67973 0.00000
S542 S 0.66858 0.50036 0.65060 0.00000
H543 H 0.51884 0.27678 0.30548 0.00000
H544 H 0.44615 0.27617 0.30353 0.00000
C545 C 0.51970 0.32931 0.32830 0.00000
C546 C 0.50346 0.29674 0.31382 0.00000
C547 C 0.46136 0.29637 0.31281 0.00000
C548 C 0.44482 0.32847 0.32676 0.00000
S549 S 0.48224 0.36001 0.34077 0.00000
H550 H 0.69632 0.45743 0.26052 0.00000
H551 H 0.70438 0.52403 0.26235 0.00000
C552 C 0.67005 0.46044 0.31089 0.00000
C553 C 0.68798 0.47299 0.28018 0.00000
C554 C 0.69252 0.51157 0.28121 0.00000
C555 C 0.67786 0.52908 0.31253 0.00000
S556 S 0.65874 0.49701 0.34159 0.00000
H557 H 0.44968 0.67923 0.26885 0.00000
H558 H 0.51958 0.66696 0.25577 0.00000
C559 C 0.46069 0.67948 0.32408 0.00000
C560 C 0.46901 0.67671 0.28717 0.00000
C561 C 0.50952 0.66972 0.27962 0.00000
C562 C 0.53280 0.66735 0.31060 0.00000
S563 S 0.50371 0.67323 0.34987 0.00000
H564 H 0.32569 0.45522 0.28706 0.00000
H565 H 0.33259 0.52085 0.27891 0.00000
C566 C 0.30599 0.46531 0.33948 0.00000
C567 C 0.31961 0.47327 0.30535 0.00000
C568 C 0.32347 0.51129 0.30061 0.00000
C569 C 0.31257 0.53292 0.33088 0.00000
S570 S 0.29795 0.50555 0.36617 0.00000
H571 H 0.65784 0.38258 0.53992 0.00000
H572 H 0.64383 0.38429 0.47431 0.00000
C573 C 0.68030 0.33083 0.53266 0.00000
C574 C 0.66344 0.36315 0.52296 0.00000
C575 C 0.65546 0.36417 0.48494 0.00000
C576 C 0.66638 0.33281 0.46501 0.00000
S577 S 0.68626 0.30116 0.49410 0.00000
H578 H 0.15097 0.02837 0.76588 0.00000
H579 H 0.14732 0.96154 0.76536 0.00000
C580 C 0.17895 0.03096 0.81603 0.00000
C581 C 0.16092 0.01491 0.78495 0.00000
C582 C 0.15893 0.97620 0.78461 0.00000
C583 C 0.17567 0.96209 0.81523 0.00000
S584 S 0.19356 0.99758 0.84536 0.00000
H585 H 0.95819 0.18008 0.76938 0.00000
H586 H 0.02792 0.16391 0.76044 0.00000
C587 C 0.96631 0.18418 0.82508 0.00000
C588 C 0.97638 0.17819 0.78877 0.00000
C589 C 0.01679 0.16894 0.78361 0.00000
C590 C 0.03826 0.16804 0.81583 0.00000
S591 S 0.00751 0.17818 0.85331 0.00000
loop_
_geom_bond_atom_site_label_1
_geom_bond_atom_site_label_2
_geom_bond_distance
_geom_bond_site_symmetry_2
_ccdc_geom_bond_type
N0 C18 1.335 . A
N0 C20 1.367 . A
N1 Co4 2.084 . S
N1 C18 1.302 . A
N1 C19 1.360 . A
O2 Co4 2.226 . S
O2 C13 1.246 . A
O3 Co4 2.083 . S
O3 C13 1.253 . A
Co4 O5 2.226 . S
Co4 O6 2.083 . S
Co4 N22 2.084 . S
O5 C17 1.246 . A
O6 C17 1.253 . A
H7 C14 0.931 . S
H8 C15 0.930 . S
H9 C16 0.930 . S
H10 C18 0.931 . S
H11 C19 0.930 . S
H12 C20 0.930 . S
C14 N21 1.335 . A
C14 N22 1.302 . A
C15 C16 1.331 . A
C15 N22 1.360 . A
C16 N21 1.367 . A
C19 C20 1.331 . A
N23 C41 1.335 . A
N23 C43 1.367 . A
N24 Co27 2.084 . S
N24 C41 1.302 . A
N24 C42 1.360 . A
O25 Co27 2.226 . S
O25 C36 1.246 . A
O26 Co27 2.083 . S
O26 C36 1.253 . A
Co27 O28 2.226 . S
Co27 O29 2.083 . S
Co27 N45 2.084 . S
O28 C40 1.246 . A
O29 C40 1.253 . A
H30 C37 0.931 . S
H31 C38 0.930 . S
H32 C39 0.930 . S
H33 C41 0.931 . S
H34 C42 0.930 . S
H35 C43 0.930 . S
C37 N44 1.335 . A
C37 N45 1.302 . A
C38 C39 1.331 . A
C38 N45 1.360 . A
C39 N44 1.367 . A
C42 C43 1.331 . A
N46 C64 1.335 . A
N46 C66 1.367 . A
N47 Co50 2.084 . S
N47 C64 1.302 . A
N47 C65 1.360 . A
O48 Co50 2.226 . S
O48 C59 1.246 . A
O49 Co50 2.083 . S
O49 C59 1.253 . A
Co50 O51 2.226 . S
Co50 O52 2.083 . S
Co50 N68 2.084 . S
O51 C63 1.246 . A
O52 C63 1.253 . A
H53 C60 0.931 . S
H54 C61 0.930 . S
H55 C62 0.930 . S
H56 C64 0.931 . S
H57 C65 0.930 . S
H58 C66 0.930 . S
C60 N67 1.335 . A
C60 N68 1.302 . A
C61 C62 1.331 . A
C61 N68 1.360 . A
C62 N67 1.367 . A
C65 C66 1.331 . A
N69 C87 1.335 . A
N69 C89 1.367 . A
N70 Co73 2.084 . S
N70 C87 1.302 . A
N70 C88 1.360 . A
O71 Co73 2.226 . S
O71 C82 1.246 . A
O72 Co73 2.083 . S
O72 C82 1.253 . A
Co73 O74 2.226 . S
Co73 O75 2.083 . S
Co73 N91 2.084 . S
O74 C86 1.246 . A
O75 C86 1.253 . A
H76 C83 0.931 . S
H77 C84 0.930 . S
H78 C85 0.930 . S
H79 C87 0.931 . S
H80 C88 0.930 . S
H81 C89 0.930 . S
C83 N90 1.335 . A
C83 N91 1.302 . A
C84 C85 1.331 . A
C84 N91 1.360 . A
C85 N90 1.367 . A
C88 C89 1.331 . A
N92 C110 1.335 . A
N92 C112 1.367 . A
N93 Co96 2.084 . S
N93 C110 1.302 . A
N93 C111 1.360 . A
O94 Co96 2.226 . S
O94 C105 1.246 . A
O95 Co96 2.083 . S
O95 C105 1.253 . A
Co96 O97 2.226 . S
Co96 O98 2.083 . S
Co96 N114 2.084 . S
O97 C109 1.246 . A
O98 C109 1.253 . A
H99 C106 0.931 . S
H100 C107 0.930 . S
H101 C108 0.930 . S
H102 C110 0.931 . S
H103 C111 0.930 . S
H104 C112 0.930 . S
C106 N113 1.335 . A
C106 N114 1.302 . A
C107 C108 1.331 . A
C107 N114 1.360 . A
C108 N113 1.367 . A
C111 C112 1.331 . A
N115 C133 1.335 . A
N115 C135 1.367 . A
N116 Co119 2.084 . S
N116 C133 1.302 . A
N116 C134 1.360 . A
O117 Co119 2.226 . S
O117 C128 1.246 . A
O118 Co119 2.083 . S
O118 C128 1.253 . A
Co119 O120 2.226 . S
Co119 O121 2.083 . S
Co119 N137 2.084 . S
O120 C132 1.246 . A
O121 C132 1.253 . A
H122 C129 0.931 . S
H123 C130 0.930 . S
H124 C131 0.930 . S
H125 C133 0.931 . S
H126 C134 0.930 . S
H127 C135 0.930 . S
C129 N136 1.335 . A
C129 N137 1.302 . A
C130 C131 1.331 . A
C130 N137 1.360 . A
C131 N136 1.367 . A
C134 C135 1.331 . A
N138 C156 1.335 . A
N138 C158 1.367 . A
N139 Co142 2.084 . S
N139 C156 1.302 . A
N139 C157 1.360 . A
O140 Co142 2.226 . S
O140 C151 1.246 . A
O141 Co142 2.083 . S
O141 C151 1.253 . A
Co142 O143 2.226 . S
Co142 O144 2.083 . S
Co142 N160 2.084 . S
O143 C155 1.246 . A
O144 C155 1.253 . A
H145 C152 0.931 . S
H146 C153 0.930 . S
H147 C154 0.930 . S
H148 C156 0.931 . S
H149 C157 0.930 . S
H150 C158 0.930 . S
C152 N159 1.335 . A
C152 N160 1.302 . A
C153 C154 1.331 . A
C153 N160 1.360 . A
C154 N159 1.367 . A
C157 C158 1.331 . A
N161 C179 1.335 . A
N161 C181 1.367 . A
N162 Co165 2.084 . S
N162 C179 1.302 . A
N162 C180 1.360 . A
O163 Co165 2.226 . S
O163 C174 1.246 . A
O164 Co165 2.083 . S
O164 C174 1.253 . A
Co165 O166 2.226 . S
Co165 O167 2.083 . S
Co165 N183 2.084 . S
O166 C178 1.246 . A
O167 C178 1.253 . A
H168 C175 0.931 . S
H169 C176 0.930 . S
H170 C177 0.930 . S
H171 C179 0.931 . S
H172 C180 0.930 . S
H173 C181 0.930 . S
C175 N182 1.335 . A
C175 N183 1.302 . A
C176 C177 1.331 . A
C176 N183 1.360 . A
C177 N182 1.367 . A
C180 C181 1.331 . A
N184 C202 1.335 . A
N184 C204 1.367 . A
N185 Co188 2.084 . S
N185 C202 1.302 . A
N185 C203 1.360 . A
O186 Co188 2.226 . S
O186 C197 1.246 . A
O187 Co188 2.083 . S
O187 C197 1.253 . A
Co188 O189 2.226 . S
Co188 O190 2.083 . S
Co188 N206 2.084 . S
O189 C201 1.246 . A
O190 C201 1.253 . A
H191 C198 0.931 . S
H192 C199 0.930 . S
H193 C200 0.930 . S
H194 C202 0.931 . S
H195 C203 0.930 . S
H196 C204 0.930 . S
C198 N205 1.335 . A
C198 N206 1.302 . A
C199 C200 1.331 . A
C199 N206 1.360 . A
C200 N205 1.367 . A
C203 C204 1.331 . A
N207 C225 1.335 . A
N207 C227 1.367 . A
N208 Co211 2.084 . S
N208 C225 1.302 . A
N208 C226 1.360 . A
O209 Co211 2.226 . S
O209 C220 1.246 . A
O210 Co211 2.083 . S
O210 C220 1.253 . A
Co211 O212 2.226 . S
Co211 O213 2.083 . S
Co211 N229 2.084 . S
O212 C224 1.246 . A
O213 C224 1.253 . A
H214 C221 0.931 . S
H215 C222 0.930 . S
H216 C223 0.930 . S
H217 C225 0.931 . S
H218 C226 0.930 . S
H219 C227 0.930 . S
C221 N228 1.335 . A
C221 N229 1.302 . A
C222 C223 1.331 . A
C222 N229 1.360 . A
C223 N228 1.367 . A
C226 C227 1.331 . A
N230 C248 1.335 . A
N230 C250 1.367 . A
N231 Co234 2.084 . S
N231 C248 1.302 . A
N231 C249 1.360 . A
O232 Co234 2.226 . S
O232 C243 1.246 . A
O233 Co234 2.083 . S
O233 C243 1.253 . A
Co234 O235 2.226 . S
Co234 O236 2.083 . S
Co234 N252 2.084 . S
O235 C247 1.246 . A
O236 C247 1.253 . A
H237 C244 0.931 . S
H238 C245 0.930 . S
H239 C246 0.930 . S
H240 C248 0.931 . S
H241 C249 0.930 . S
H242 C250 0.930 . S
C244 N251 1.335 . A
C244 N252 1.302 . A
C245 C246 1.331 . A
C245 N252 1.360 . A
C246 N251 1.367 . A
C249 C250 1.331 . A
N253 C271 1.335 . A
N253 C273 1.367 . A
N254 Co257 2.084 . S
N254 C271 1.302 . A
N254 C272 1.360 . A
O255 Co257 2.226 . S
O255 C266 1.246 . A
O256 Co257 2.083 . S
O256 C266 1.253 . A
Co257 O258 2.226 . S
Co257 O259 2.083 . S
Co257 N275 2.084 . S
O258 C270 1.246 . A
O259 C270 1.253 . A
H260 C267 0.931 . S
H261 C268 0.930 . S
H262 C269 0.930 . S
H263 C271 0.931 . S
H264 C272 0.930 . S
H265 C273 0.930 . S
C267 N274 1.335 . A
C267 N275 1.302 . A
C268 C269 1.331 . A
C268 N275 1.360 . A
C269 N274 1.367 . A
C272 C273 1.331 . A
N276 C294 1.335 . A
N276 C296 1.367 . A
N277 Co280 2.084 . S
N277 C294 1.302 . A
N277 C295 1.360 . A
O278 Co280 2.226 . S
O278 C289 1.246 . A
O279 Co280 2.083 . S
O279 C289 1.253 . A
Co280 O281 2.226 . S
Co280 O282 2.083 . S
Co280 N298 2.084 . S
O281 C293 1.246 . A
O282 C293 1.253 . A
H283 C290 0.931 . S
H284 C291 0.930 . S
H285 C292 0.930 . S
H286 C294 0.931 . S
H287 C295 0.930 . S
H288 C296 0.930 . S
C290 N297 1.335 . A
C290 N298 1.302 . A
C291 C292 1.331 . A
C291 N298 1.360 . A
C292 N297 1.367 . A
C295 C296 1.331 . A
N299 C317 1.335 . A
N299 C319 1.367 . A
N300 Co303 2.084 . S
N300 C317 1.302 . A
N300 C318 1.360 . A
O301 Co303 2.226 . S
O301 C312 1.246 . A
O302 Co303 2.083 . S
O302 C312 1.253 . A
Co303 O304 2.226 . S
Co303 O305 2.083 . S
Co303 N321 2.084 . S
O304 C316 1.246 . A
O305 C316 1.253 . A
H306 C313 0.931 . S
H307 C314 0.930 . S
H308 C315 0.930 . S
H309 C317 0.931 . S
H310 C318 0.930 . S
H311 C319 0.930 . S
C313 N320 1.335 . A
C313 N321 1.302 . A
C314 C315 1.331 . A
C314 N321 1.360 . A
C315 N320 1.367 . A
C318 C319 1.331 . A
N322 C340 1.335 . A
N322 C342 1.367 . A
N323 Co326 2.084 . S
N323 C340 1.302 . A
N323 C341 1.360 . A
O324 Co326 2.226 . S
O324 C335 1.246 . A
O325 Co326 2.083 . S
O325 C335 1.253 . A
Co326 O327 2.226 . S
Co326 O328 2.083 . S
Co326 N344 2.084 . S
O327 C339 1.246 . A
O328 C339 1.253 . A
H329 C336 0.931 . S
H330 C337 0.930 . S
H331 C338 0.930 . S
H332 C340 0.931 . S
H333 C341 0.930 . S
H334 C342 0.930 . S
C336 N343 1.335 . A
C336 N344 1.302 . A
C337 C338 1.331 . A
C337 N344 1.360 . A
C338 N343 1.367 . A
C341 C342 1.331 . A
N345 C363 1.335 . A
N345 C365 1.367 . A
N346 Co349 2.084 . S
N346 C363 1.302 . A
N346 C364 1.360 . A
O347 Co349 2.226 . S
O347 C358 1.246 . A
O348 Co349 2.083 . S
O348 C358 1.253 . A
Co349 O350 2.226 . S
Co349 O351 2.083 . S
Co349 N367 2.084 . S
O350 C362 1.246 . A
O351 C362 1.253 . A
H352 C359 0.931 . S
H353 C360 0.930 . S
H354 C361 0.930 . S
H355 C363 0.931 . S
H356 C364 0.930 . S
H357 C365 0.930 . S
C359 N366 1.335 . A
C359 N367 1.302 . A
C360 C361 1.331 . A
C360 N367 1.360 . A
C361 N366 1.367 . A
C364 C365 1.331 . A
H368 C371 0.929 . S
H369 C372 0.930 . S
C370 C371 1.367 . A
C370 S374 1.727 . A
C371 C372 1.403 . A
C372 C373 1.365 . A
C373 S374 1.734 . A
H375 C378 0.929 . S
H376 C379 0.930 . S
C377 C378 1.367 . A
C377 S381 1.727 . A
C378 C379 1.403 . A
C379 C380 1.365 . A
C380 S381 1.734 . A
H382 C385 0.929 . S
H383 C386 0.930 . S
C384 C385 1.367 . A
C384 S388 1.727 . A
C385 C386 1.403 . A
C386 C387 1.365 . A
C387 S388 1.734 . A
H389 C392 0.929 . S
H390 C393 0.930 . S
C391 C392 1.367 . A
C391 S395 1.727 . A
C392 C393 1.403 . A
C393 C394 1.365 . A
C394 S395 1.734 . A
H396 C399 0.929 . S
H397 C400 0.930 . S
C398 C399 1.367 . A
C398 S402 1.727 . A
C399 C400 1.403 . A
C400 C401 1.365 . A
C401 S402 1.734 . A
H403 C406 0.929 . S
H404 C407 0.930 . S
C405 C406 1.367 . A
C405 S409 1.727 . A
C406 C407 1.403 . A
C407 C408 1.365 . A
C408 S409 1.734 . A
H410 C413 0.929 . S
H411 C414 0.930 . S
C412 C413 1.367 . A
C412 S416 1.727 . A
C413 C414 1.403 . A
C414 C415 1.365 . A
C415 S416 1.734 . A
H417 C420 0.929 . S
H418 C421 0.930 . S
C419 C420 1.367 . A
C419 S423 1.727 . A
C420 C421 1.403 . A
C421 C422 1.365 . A
C422 S423 1.734 . A
H424 C427 0.929 . S
H425 C428 0.930 . S
C426 C427 1.367 . A
C426 S430 1.727 . A
C427 C428 1.403 1_545 A
C428 C429 1.365 . A
C429 S430 1.734 1_565 A
H431 C434 0.929 . S
H432 C435 0.945 . S
C433 C434 1.367 . A
C433 S437 1.727 . A
C434 C435 1.374 1_455 A
C435 C436 1.379 . A
C436 S437 1.734 1_655 A
H438 C441 0.929 . S
H439 C442 0.930 . S
C440 C441 1.367 . A
C440 S444 1.729 1_565 A
C441 C442 1.403 1_565 A
C442 C443 1.365 . A
C443 S444 1.732 . A
H445 C448 0.929 . S
H446 C449 0.930 . S
C447 C448 1.367 . A
C447 S451 1.727 1_655 A
C448 C449 1.403 1_655 A
C449 C450 1.365 . A
C450 S451 1.734 . A
H452 C455 0.929 . S
H453 C456 0.930 . S
C454 C455 1.367 . A
C454 S458 1.727 1_545 A
C455 C456 1.403 1_545 A
C456 C457 1.365 . A
C457 S458 1.734 . A
H459 C462 0.929 . S
H460 C463 0.930 . S
C461 C462 1.367 . A
C461 S465 1.727 . A
C462 C463 1.403 1_655 A
C463 C464 1.365 . A
C464 S465 1.734 1_455 A
H466 C469 0.929 . S
H467 C470 0.930 . S
C468 C469 1.367 . A
C468 S472 1.727 . A
C469 C470 1.403 1_556 A
C470 C471 1.365 . A
C471 S472 1.734 1_554 A
H473 C476 0.929 . S
H474 C477 0.930 . S
C475 C476 1.367 . A
C475 S479 1.727 . A
C476 C477 1.403 1_554 A
C477 C478 1.365 . A
C478 S479 1.734 1_556 A
H480 C483 0.929 . S
H481 C484 0.930 . S
C482 C483 1.367 . A
C482 S486 1.732 . A
C483 C484 1.403 1_556 A
C484 C485 1.365 . A
C485 S486 1.729 1_554 A
H487 C490 0.929 . S
H488 C491 0.930 . S
C489 C490 1.367 . A
C489 S493 1.727 . A
C490 C491 1.403 1_556 A
C491 C492 1.365 . A
C492 S493 1.734 1_554 A
H494 C497 0.929 . S
H495 C498 0.930 . S
C496 C497 1.367 . A
C496 S500 1.727 . A
C497 C498 1.403 . A
C498 C499 1.365 . A
C499 S500 1.734 . A
H501 C504 0.929 . S
H502 C505 0.930 . S
C503 C504 1.367 . A
C503 S507 1.727 . A
C504 C505 1.403 . A
C505 C506 1.365 . A
C506 S507 1.734 . A
H508 C511 0.929 . S
H509 C512 0.930 . S
C510 C511 1.367 . A
C510 S514 1.727 . A
C511 C512 1.403 . A
C512 C513 1.365 . A
C513 S514 1.734 . A
H515 C518 0.929 . S
H516 C519 0.930 . S
C517 C518 1.367 . A
C517 S521 1.727 . A
C518 C519 1.403 . A
C519 C520 1.365 . A
C520 S521 1.734 . A
H522 C525 0.929 . S
H523 C526 0.930 . S
C524 C525 1.367 . A
C524 S528 1.727 . A
C525 C526 1.403 . A
C526 C527 1.365 . A
C527 S528 1.734 . A
H529 C532 0.929 . S
H530 C533 0.930 . S
C531 C532 1.367 . A
C531 S535 1.727 . A
C532 C533 1.403 . A
C533 C534 1.365 . A
C534 S535 1.734 . A
H536 C539 0.929 . S
H537 C540 0.930 . S
C538 C539 1.367 . A
C538 S542 1.727 . A
C539 C540 1.403 . A
C540 C541 1.365 . A
C541 S542 1.734 . A
H543 C546 0.929 . S
H544 C547 0.930 . S
C545 C546 1.367 . A
C545 S549 1.727 . A
C546 C547 1.403 . A
C547 C548 1.365 . A
C548 S549 1.734 . A
H550 C553 0.929 . S
H551 C554 0.930 . S
C552 C553 1.367 . A
C552 S556 1.727 . A
C553 C554 1.403 . A
C554 C555 1.365 . A
C555 S556 1.734 . A
H557 C560 0.929 . S
H558 C561 0.930 . S
C559 C560 1.367 . A
C559 S563 1.727 . A
C560 C561 1.403 . A
C561 C562 1.365 . A
C562 S563 1.734 . A
H564 C567 0.929 . S
H565 C568 0.930 . S
C566 C567 1.367 . A
C566 S570 1.727 . A
C567 C568 1.403 . A
C568 C569 1.365 . A
C569 S570 1.734 . A
H571 C574 0.929 . S
H572 C575 0.930 . S
C573 C574 1.367 . A
C573 S577 1.727 . A
C574 C575 1.403 . A
C575 C576 1.365 . A
C576 S577 1.734 . A
H578 C581 0.929 . S
H579 C582 0.930 . S
C580 C581 1.367 . A
C580 S584 1.727 1_545 A
C581 C582 1.403 1_545 A
C582 C583 1.365 . A
C583 S584 1.734 . A
H585 C588 0.929 . S
H586 C589 0.930 . S
C587 C588 1.367 . A
C587 S591 1.727 1_655 A
C588 C589 1.403 1_655 A
C589 C590 1.365 . A
C590 S591 1.734 . A
C370 N343 1.080 . S
C373 N21 1.100 . S
C377 N366 1.081 . S
C380 N44 1.099 . S
C384 N67 1.081 . S
C387 N205 1.090 . S
C391 N90 1.058 . S
C394 N228 1.071 . S
C398 N251 1.029 . S
C401 N113 1.085 . S
C405 N136 1.111 . S
C408 N274 1.138 . S
C412 N297 1.051 . S
C415 N159 0.944 . S
C419 N182 1.069 . S
C422 N320 1.001 . S
C426 N0 1.282 . S
C429 N115 1.259 . S
C433 C109 1.127 . S
C436 C36 1.390 . S
C440 N46 1.335 . S
C443 N23 1.368 . S
C447 C63 1.271 . S
C450 C86 1.173 . S
C454 N92 1.296 . S
C457 C82 1.433 . S
C461 C128 1.315 . S
C464 C151 1.302 . S
C468 N138 1.174 . S
C471 N69 1.286 . S
C475 C40 1.297 . S
C478 C13 1.498 . S
C482 C132 1.249 . S
C485 C59 1.462 . S
C489 N161 1.281 . S
C492 C105 1.356 . S
C496 N253 1.237 . S
C499 N184 1.354 . S
C503 C220 1.443 . S
C506 C293 1.097 . S
C510 N230 1.251 . S
C513 C312 1.390 . S
C517 C266 1.285 . S
C520 C289 1.304 . S
C524 N276 1.254 . S
C527 N299 1.084 . S
C531 C316 1.213 . S
C534 C339 1.348 . S
C538 C270 1.252 . S
C541 C335 1.463 . S
C545 C358 1.413 . S
C548 C247 1.316 . S
C552 C362 1.296 . S
C555 C197 1.498 . S
C559 C224 1.404 . S
C562 C201 1.290 . S
C566 C243 1.349 . S
C569 N207 1.192 . S
C573 N322 1.366 . S
C576 N345 1.346 . S
C580 C174 1.443 . S
C583 C155 1.097 . S
C587 C17 1.378 . S
C590 C178 1.308 . S
