# Generated by pormake.
# Topology pcb, (4)-cn, num edge types: 1
# Building blocks:
#     Node 0, Type 0, BuildingBlock: N172, # of connection points: 5
#     Node 1, Type 0, BuildingBlock: N172, # of connection points: 5
#     Node 2, Type 0, BuildingBlock: N172, # of connection points: 5
#     Node 3, Type 0, BuildingBlock: N172, # of connection points: 5
#     Node 4, Type 0, BuildingBlock: N172, # of connection points: 5
#     Node 5, Type 0, BuildingBlock: N172, # of connection points: 5
#     Node 6, Type 0, BuildingBlock: N172, # of connection points: 5
#     Node 7, Type 0, BuildingBlock: N172, # of connection points: 5
#     Node 8, Type 0, BuildingBlock: N172, # of connection points: 5
#     Node 9, Type 0, BuildingBlock: N172, # of connection points: 5
#     Node 10, Type 0, BuildingBlock: N172, # of connection points: 5
#     Node 11, Type 0, BuildingBlock: N172, # of connection points: 5
#     Node 12, Type 0, BuildingBlock: N172, # of connection points: 5
#     Node 13, Type 0, BuildingBlock: N172, # of connection points: 5
#     Node 14, Type 0, BuildingBlock: N172, # of connection points: 5
#     Node 15, Type 0, BuildingBlock: N172, # of connection points: 5
#     Edge 16, Type (0, 0), BuildingBlock: E127, # of connection points: 2
#     Edge 17, Type (0, 0), BuildingBlock: E127, # of connection points: 2
#     Edge 18, Type (0, 0), BuildingBlock: E127, # of connection points: 2
#     Edge 19, Type (0, 0), BuildingBlock: E127, # of connection points: 2
#     Edge 20, Type (0, 0), BuildingBlock: E127, # of connection points: 2
#     Edge 21, Type (0, 0), BuildingBlock: E127, # of connection points: 2
#     Edge 22, Type (0, 0), BuildingBlock: E127, # of connection points: 2
#     Edge 23, Type (0, 0), BuildingBlock: E127, # of connection points: 2
#     Edge 24, Type (0, 0), BuildingBlock: E127, # of connection points: 2
#     Edge 25, Type (0, 0), BuildingBlock: E127, # of connection points: 2
#     Edge 26, Type (0, 0), BuildingBlock: E127, # of connection points: 2
#     Edge 27, Type (0, 0), BuildingBlock: E127, # of connection points: 2
#     Edge 28, Type (0, 0), BuildingBlock: E127, # of connection points: 2
#     Edge 29, Type (0, 0), BuildingBlock: E127, # of connection points: 2
#     Edge 30, Type (0, 0), BuildingBlock: E127, # of connection points: 2
#     Edge 31, Type (0, 0), BuildingBlock: E127, # of connection points: 2
#     Edge 32, Type (0, 0), BuildingBlock: E127, # of connection points: 2
#     Edge 33, Type (0, 0), BuildingBlock: E127, # of connection points: 2
#     Edge 34, Type (0, 0), BuildingBlock: E127, # of connection points: 2
#     Edge 35, Type (0, 0), BuildingBlock: E127, # of connection points: 2
#     Edge 36, Type (0, 0), BuildingBlock: E127, # of connection points: 2
#     Edge 37, Type (0, 0), BuildingBlock: E127, # of connection points: 2
#     Edge 38, Type (0, 0), BuildingBlock: E127, # of connection points: 2
#     Edge 39, Type (0, 0), BuildingBlock: E127, # of connection points: 2
#     Edge 40, Type (0, 0), BuildingBlock: E127, # of connection points: 2
#     Edge 41, Type (0, 0), BuildingBlock: E127, # of connection points: 2
#     Edge 42, Type (0, 0), BuildingBlock: E127, # of connection points: 2
#     Edge 43, Type (0, 0), BuildingBlock: E127, # of connection points: 2
#     Edge 44, Type (0, 0), BuildingBlock: E127, # of connection points: 2
#     Edge 45, Type (0, 0), BuildingBlock: E127, # of connection points: 2
#     Edge 46, Type (0, 0), BuildingBlock: E127, # of connection points: 2
#     Edge 47, Type (0, 0), BuildingBlock: E127, # of connection points: 2
# Relax obj value: 0.044
# Max RMSD: 0.168
# Mean RMSD: 0.145
data_pcb+N172+E127
_symmetry_space_group_name_H-M    P1
_symmetry_Int_Tables_number       1
_symmetry_cell_setting            triclinic
loop_
_symmetry_equiv_pos_as_xyz
'x, y, z'
_cell_length_a     35.582
_cell_length_b     35.582
_cell_length_c     35.721
_cell_angle_alpha  90.583
_cell_angle_beta   90.583
_cell_angle_gamma  93.029
loop_
_atom_site_label
_atom_site_type_symbol
_atom_site_fract_x
_atom_site_fract_y
_atom_site_fract_z
_atom_type_partial_charge
O0 O 0.76718 0.10592 0.83541 0.00000
O1 O 0.75737 0.14998 0.87973 0.00000
Zn2 Zn 0.79462 0.19198 0.87330 0.00000
Zn3 Zn 0.80852 0.12899 0.80133 0.00000
O4 O 0.83241 0.16036 0.84649 0.00000
Zn5 Zn 0.85795 0.12551 0.87868 0.00000
C6 C 0.82652 0.15202 0.94513 0.00000
O7 O 0.91227 0.13225 0.86938 0.00000
C8 C 0.83988 0.06043 0.83947 0.00000
O9 O 0.84969 0.12867 0.93250 0.00000
O10 O 0.81555 0.18000 0.92907 0.00000
O11 O 0.90789 0.18542 0.83869 0.00000
C12 C 0.76487 0.19919 0.79399 0.00000
O13 O 0.77713 0.17038 0.78150 0.00000
O14 O 0.77034 0.21314 0.82559 0.00000
C15 C 0.74979 0.11783 0.86349 0.00000
C16 C 0.92432 0.15839 0.84898 0.00000
H17 H 0.85202 0.17805 0.83612 0.00000
O18 O 0.84158 0.08175 0.81213 0.00000
O19 O 0.84460 0.07156 0.87313 0.00000
O20 O 0.89556 0.22105 0.16998 0.00000
O21 O 0.84970 0.23168 0.12778 0.00000
Zn22 Zn 0.80721 0.19558 0.13650 0.00000
Zn23 Zn 0.87319 0.18057 0.20545 0.00000
O24 O 0.83906 0.15713 0.16200 0.00000
Zn25 Zn 0.87154 0.13035 0.12830 0.00000
C26 C 0.84264 0.16198 0.06298 0.00000
O27 O 0.86387 0.07625 0.13830 0.00000
C28 C 0.93880 0.14702 0.16419 0.00000
O29 O 0.86593 0.13827 0.07462 0.00000
O30 O 0.81584 0.17384 0.08032 0.00000
O31 O 0.81252 0.08231 0.17153 0.00000
C32 C 0.80472 0.22622 0.21592 0.00000
O33 O 0.83373 0.21327 0.22707 0.00000
O34 O 0.78911 0.22085 0.18505 0.00000
C35 C 0.88274 0.23854 0.14238 0.00000
C36 C 0.83852 0.06505 0.16003 0.00000
H37 H 0.82144 0.13805 0.17336 0.00000
O38 O 0.91887 0.14612 0.19257 0.00000
O39 O 0.92592 0.14231 0.13113 0.00000
O40 O 0.87363 0.83409 0.21972 0.00000
O41 O 0.83548 0.88149 0.23156 0.00000
Zn42 Zn 0.79651 0.88098 0.19231 0.00000
Zn43 Zn 0.84977 0.80461 0.17470 0.00000
O44 O 0.82758 0.85385 0.15388 0.00000
Zn45 Zn 0.86929 0.88455 0.13313 0.00000
C46 C 0.84969 0.95119 0.16916 0.00000
O47 O 0.86648 0.87920 0.07830 0.00000
C48 C 0.92633 0.83872 0.15023 0.00000
O49 O 0.87322 0.93801 0.14612 0.00000
O50 O 0.81855 0.93689 0.17729 0.00000
O51 O 0.80888 0.85288 0.07746 0.00000
C52 C 0.77490 0.80062 0.21408 0.00000
O53 O 0.80282 0.78645 0.20208 0.00000
O54 O 0.76622 0.83370 0.21097 0.00000
C55 C 0.86425 0.86205 0.23896 0.00000
C56 C 0.83876 0.86184 0.06336 0.00000
H57 H 0.81042 0.84623 0.13276 0.00000
O58 O 0.90136 0.81338 0.14510 0.00000
O59 O 0.92066 0.87355 0.14818 0.00000
O60 O 0.09799 0.76450 0.17109 0.00000
O61 O 0.13996 0.75081 0.12658 0.00000
Zn62 Zn 0.18369 0.78646 0.13181 0.00000
Zn63 Zn 0.12399 0.80629 0.20406 0.00000
O64 O 0.15479 0.82685 0.15812 0.00000
Zn65 Zn 0.12012 0.85264 0.12575 0.00000
C66 C 0.14287 0.81715 0.05974 0.00000
O67 O 0.12958 0.90709 0.13384 0.00000
C68 C 0.05579 0.83917 0.16594 0.00000
O69 O 0.12107 0.84193 0.07211 0.00000
O70 O 0.17080 0.80558 0.07576 0.00000
O71 O 0.18341 0.90160 0.16408 0.00000
C72 C 0.19223 0.75972 0.21164 0.00000
O73 O 0.16450 0.77383 0.22414 0.00000
O74 O 0.20531 0.76322 0.17980 0.00000
C75 C 0.10814 0.74537 0.14328 0.00000
C76 C 0.15686 0.91884 0.15371 0.00000
H77 H 0.17364 0.84613 0.16790 0.00000
O78 O 0.07803 0.84106 0.19303 0.00000
O79 O 0.06595 0.84196 0.13210 0.00000
O80 O 0.21428 0.09435 0.17173 0.00000
O81 O 0.23010 0.13646 0.12690 0.00000
Zn82 Zn 0.19781 0.17918 0.13191 0.00000
Zn83 Zn 0.17516 0.11933 0.20462 0.00000
O84 O 0.15581 0.14920 0.15851 0.00000
Zn85 Zn 0.12665 0.11346 0.12643 0.00000
C86 C 0.16235 0.13685 0.06019 0.00000
O87 O 0.07303 0.12132 0.13458 0.00000
C88 C 0.13625 0.04976 0.16704 0.00000
O89 O 0.13619 0.11436 0.07276 0.00000
O90 O 0.17640 0.16529 0.07598 0.00000
O91 O 0.08326 0.17559 0.16444 0.00000
C92 C 0.22707 0.18913 0.21162 0.00000
O93 O 0.21115 0.16103 0.22434 0.00000
O94 O 0.22380 0.20188 0.17970 0.00000
C95 C 0.23355 0.10489 0.14381 0.00000
C96 C 0.06378 0.14840 0.15429 0.00000
H97 H 0.13816 0.16755 0.16820 0.00000
O98 O 0.13665 0.07217 0.19398 0.00000
O99 O 0.13343 0.05961 0.13314 0.00000
O100 O 0.83359 0.87571 0.78263 0.00000
O101 O 0.88027 0.83670 0.77102 0.00000
Zn102 Zn 0.87924 0.79789 0.80964 0.00000
Zn103 Zn 0.80388 0.85253 0.82676 0.00000
O104 O 0.85276 0.82960 0.84809 0.00000
Zn105 Zn 0.88418 0.87094 0.87004 0.00000
C106 C 0.95032 0.85006 0.83487 0.00000
O107 O 0.87895 0.86848 0.92474 0.00000
C108 C 0.83929 0.92870 0.85304 0.00000
O109 O 0.93761 0.87393 0.85805 0.00000
O110 O 0.93549 0.81909 0.82599 0.00000
O111 O 0.85170 0.81126 0.92420 0.00000
C112 C 0.79854 0.77749 0.78611 0.00000
O113 O 0.78488 0.80571 0.79831 0.00000
O114 O 0.83144 0.76827 0.78966 0.00000
C115 C 0.86131 0.86577 0.76373 0.00000
C116 C 0.86119 0.84109 0.93893 0.00000
H117 H 0.84493 0.81266 0.86880 0.00000
O118 O 0.81357 0.90416 0.85733 0.00000
O119 O 0.87400 0.92246 0.85562 0.00000
O120 O 0.22658 0.88675 0.83368 0.00000
O121 O 0.23630 0.84223 0.87687 0.00000
Zn122 Zn 0.19874 0.80054 0.86869 0.00000
Zn123 Zn 0.18491 0.86425 0.79833 0.00000
O124 O 0.16105 0.83266 0.84224 0.00000
Zn125 Zn 0.13592 0.86742 0.87506 0.00000
C126 C 0.16750 0.84014 0.94120 0.00000
O127 O 0.08153 0.86114 0.86477 0.00000
C128 C 0.15424 0.93272 0.83799 0.00000
O129 O 0.14444 0.86376 0.92890 0.00000
O130 O 0.17819 0.81221 0.92449 0.00000
O131 O 0.08537 0.80818 0.83261 0.00000
C132 C 0.22802 0.79378 0.78960 0.00000
O133 O 0.21590 0.82279 0.77777 0.00000
O134 O 0.22261 0.77960 0.82072 0.00000
C135 C 0.24402 0.87447 0.86167 0.00000
C136 C 0.06919 0.83525 0.84344 0.00000
H137 H 0.14126 0.81519 0.83107 0.00000
O138 O 0.15225 0.91164 0.81001 0.00000
O139 O 0.14962 0.92134 0.87125 0.00000
O140 O 0.16100 0.12102 0.78029 0.00000
O141 O 0.11418 0.16058 0.77135 0.00000
Zn142 Zn 0.11799 0.19945 0.81072 0.00000
Zn143 Zn 0.19357 0.14393 0.82370 0.00000
O144 O 0.14634 0.16747 0.84741 0.00000
Zn145 Zn 0.11578 0.12650 0.86968 0.00000
C146 C 0.04792 0.14811 0.83757 0.00000
O147 O 0.12430 0.12899 0.92416 0.00000
C148 C 0.15887 0.06817 0.84971 0.00000
O149 O 0.06170 0.12411 0.85972 0.00000
O150 O 0.06256 0.17891 0.82879 0.00000
O151 O 0.15215 0.18592 0.92379 0.00000
C152 C 0.19739 0.21890 0.78450 0.00000
O153 O 0.21141 0.19052 0.79555 0.00000
O154 O 0.16487 0.22851 0.78953 0.00000
C155 C 0.13232 0.13126 0.76271 0.00000
C156 C 0.14320 0.15620 0.93823 0.00000
H157 H 0.15559 0.18436 0.86816 0.00000
O158 O 0.18509 0.09243 0.85352 0.00000
O159 O 0.12446 0.07481 0.85376 0.00000
O160 O 0.66050 0.62096 0.28027 0.00000
O161 O 0.61310 0.65910 0.26843 0.00000
Zn162 Zn 0.61361 0.69808 0.30768 0.00000
Zn163 Zn 0.68997 0.64481 0.32529 0.00000
O164 O 0.64074 0.66701 0.34611 0.00000
Zn165 Zn 0.61004 0.62530 0.36686 0.00000
C166 C 0.54341 0.64490 0.33083 0.00000
O167 O 0.61539 0.62810 0.42169 0.00000
C168 C 0.65587 0.56826 0.34975 0.00000
O169 O 0.55659 0.62137 0.35387 0.00000
O170 O 0.55770 0.67604 0.32270 0.00000
O171 O 0.64171 0.68571 0.42253 0.00000
C172 C 0.69396 0.71968 0.28590 0.00000
O173 O 0.70814 0.69177 0.29791 0.00000
O174 O 0.66089 0.72836 0.28901 0.00000
C175 C 0.63254 0.63034 0.26103 0.00000
C176 C 0.63275 0.65583 0.43663 0.00000
H177 H 0.64836 0.68416 0.36723 0.00000
O178 O 0.68121 0.59322 0.35489 0.00000
O179 O 0.62104 0.57392 0.35181 0.00000
O180 O 0.27354 0.59904 0.33003 0.00000
O181 O 0.26291 0.64489 0.37223 0.00000
Zn182 Zn 0.29901 0.68739 0.36351 0.00000
Zn183 Zn 0.31402 0.62141 0.29456 0.00000
O184 O 0.33746 0.65553 0.33800 0.00000
Zn185 Zn 0.36424 0.62306 0.37170 0.00000
C186 C 0.33262 0.65195 0.43703 0.00000
O187 O 0.41835 0.63073 0.36171 0.00000
C188 C 0.34757 0.55579 0.33581 0.00000
O189 O 0.35633 0.62867 0.42538 0.00000
O190 O 0.32075 0.67876 0.41968 0.00000
O191 O 0.41228 0.68208 0.32847 0.00000
C192 C 0.26838 0.68988 0.28409 0.00000
O193 O 0.28132 0.66087 0.27294 0.00000
O194 O 0.27375 0.70549 0.31496 0.00000
C195 C 0.25606 0.61185 0.35762 0.00000
C196 C 0.42954 0.65607 0.33997 0.00000
H197 H 0.35654 0.67315 0.32664 0.00000
O198 O 0.34847 0.57573 0.30743 0.00000
O199 O 0.35228 0.56868 0.36887 0.00000
O200 O 0.40024 0.28031 0.32827 0.00000
O201 O 0.35813 0.26449 0.37310 0.00000
Zn202 Zn 0.31541 0.29679 0.36809 0.00000
Zn203 Zn 0.37527 0.31943 0.29538 0.00000
O204 O 0.34540 0.33878 0.34149 0.00000
Zn205 Zn 0.38114 0.36794 0.37357 0.00000
C206 C 0.35775 0.33225 0.43981 0.00000
O207 O 0.37328 0.42156 0.36542 0.00000
C208 C 0.44483 0.35834 0.33296 0.00000
O209 O 0.38024 0.35840 0.42724 0.00000
O210 O 0.32931 0.31820 0.42401 0.00000
O211 O 0.31901 0.41134 0.33556 0.00000
C212 C 0.30546 0.26752 0.28838 0.00000
O213 O 0.33357 0.28344 0.27566 0.00000
O214 O 0.29271 0.27080 0.32030 0.00000
C215 C 0.38970 0.26105 0.35619 0.00000
C216 C 0.34619 0.43082 0.34571 0.00000
H217 H 0.32705 0.35644 0.33180 0.00000
O218 O 0.42242 0.35794 0.30602 0.00000
O219 O 0.43499 0.36116 0.36686 0.00000
O220 O 0.61889 0.66101 0.71735 0.00000
O221 O 0.65790 0.61433 0.72897 0.00000
Zn222 Zn 0.69671 0.61536 0.69035 0.00000
Zn223 Zn 0.64207 0.69072 0.67323 0.00000
O224 O 0.66500 0.64184 0.65190 0.00000
Zn225 Zn 0.62366 0.61042 0.62995 0.00000
C226 C 0.64454 0.54428 0.66512 0.00000
O227 O 0.62612 0.61565 0.57525 0.00000
C228 C 0.56590 0.65530 0.64695 0.00000
O229 O 0.62067 0.55699 0.64194 0.00000
O230 O 0.67551 0.55910 0.67400 0.00000
O231 O 0.68334 0.64289 0.57579 0.00000
C232 C 0.71711 0.69606 0.71388 0.00000
O233 O 0.68889 0.70972 0.70167 0.00000
O234 O 0.72633 0.66315 0.71033 0.00000
C235 C 0.62883 0.63329 0.73626 0.00000
C236 C 0.65351 0.63340 0.56106 0.00000
H237 H 0.68194 0.64967 0.63118 0.00000
O238 O 0.59044 0.68102 0.64266 0.00000
O239 O 0.57213 0.62060 0.64438 0.00000
O240 O 0.38868 0.72742 0.66459 0.00000
O241 O 0.34461 0.73722 0.62028 0.00000
Zn242 Zn 0.30262 0.69997 0.62671 0.00000
Zn243 Zn 0.36561 0.68607 0.69868 0.00000
O244 O 0.33424 0.66218 0.65352 0.00000
Zn245 Zn 0.36909 0.63664 0.62133 0.00000
C246 C 0.34258 0.66807 0.55488 0.00000
O247 O 0.36234 0.58232 0.63063 0.00000
C248 C 0.43417 0.65471 0.66053 0.00000
O249 O 0.36592 0.64491 0.56751 0.00000
O250 O 0.31460 0.67905 0.57094 0.00000
O251 O 0.30917 0.58670 0.66132 0.00000
C252 C 0.29541 0.72972 0.70602 0.00000
O253 O 0.32422 0.71746 0.71851 0.00000
O254 O 0.28146 0.72425 0.67442 0.00000
C255 C 0.37676 0.74480 0.63652 0.00000
C256 C 0.33621 0.57027 0.65102 0.00000
H257 H 0.31655 0.64257 0.66389 0.00000
O258 O 0.41285 0.65301 0.68788 0.00000
O259 O 0.42304 0.64999 0.62688 0.00000
O260 O 0.37357 0.33359 0.71971 0.00000
O261 O 0.33401 0.38040 0.72865 0.00000
Zn262 Zn 0.29513 0.37659 0.68928 0.00000
Zn263 Zn 0.35066 0.30102 0.67629 0.00000
O264 O 0.32712 0.34825 0.65259 0.00000
Zn265 Zn 0.36808 0.37881 0.63032 0.00000
C266 C 0.34648 0.44667 0.66243 0.00000
O267 O 0.36560 0.37029 0.57584 0.00000
C268 C 0.42642 0.33572 0.65029 0.00000
O269 O 0.37048 0.43289 0.64028 0.00000
O270 O 0.31568 0.43203 0.67121 0.00000
O271 O 0.30867 0.34243 0.57621 0.00000
C272 C 0.27569 0.29720 0.71550 0.00000
O273 O 0.30407 0.28318 0.70444 0.00000
O274 O 0.26608 0.32972 0.71047 0.00000
C275 C 0.36333 0.36227 0.73729 0.00000
C276 C 0.33838 0.35139 0.56177 0.00000
H277 H 0.31023 0.33899 0.63184 0.00000
O278 O 0.40215 0.30949 0.64648 0.00000
O279 O 0.41978 0.37013 0.64623 0.00000
O280 O 0.60784 0.26801 0.66633 0.00000
O281 O 0.65235 0.25829 0.62314 0.00000
Zn282 Zn 0.69404 0.29585 0.63132 0.00000
Zn283 Zn 0.63034 0.30969 0.70168 0.00000
O284 O 0.66193 0.33355 0.65777 0.00000
Zn285 Zn 0.62716 0.35867 0.62495 0.00000
C286 C 0.65445 0.32709 0.55881 0.00000
O287 O 0.63345 0.41306 0.63524 0.00000
C288 C 0.56187 0.34036 0.66201 0.00000
O289 O 0.63083 0.35015 0.57111 0.00000
O290 O 0.68238 0.31640 0.57552 0.00000
O291 O 0.68641 0.40922 0.66739 0.00000
C292 C 0.70080 0.26657 0.71041 0.00000
O293 O 0.67180 0.27870 0.72224 0.00000
O294 O 0.71498 0.27198 0.67929 0.00000
C295 C 0.62011 0.25058 0.63834 0.00000
C296 C 0.65934 0.42540 0.65656 0.00000
H297 H 0.67940 0.35334 0.66894 0.00000
O298 O 0.58295 0.34234 0.69000 0.00000
O299 O 0.57325 0.34498 0.62875 0.00000
O300 O 0.73009 0.39659 0.32892 0.00000
O301 O 0.74379 0.35463 0.37343 0.00000
Zn302 Zn 0.70814 0.31090 0.36819 0.00000
Zn303 Zn 0.68831 0.37060 0.29594 0.00000
O304 O 0.66774 0.33980 0.34189 0.00000
Zn305 Zn 0.64196 0.37447 0.37426 0.00000
C306 C 0.67744 0.35172 0.44026 0.00000
O307 O 0.58750 0.36500 0.36617 0.00000
C308 C 0.65543 0.43880 0.33406 0.00000
O309 O 0.65266 0.37351 0.42790 0.00000
O310 O 0.68901 0.32378 0.42425 0.00000
O311 O 0.59299 0.31118 0.33592 0.00000
C312 C 0.73488 0.30235 0.28837 0.00000
O313 O 0.72076 0.33008 0.27587 0.00000
O314 O 0.73137 0.28928 0.32021 0.00000
C315 C 0.74922 0.38645 0.35673 0.00000
C316 C 0.57576 0.33773 0.34629 0.00000
H317 H 0.64847 0.32094 0.33211 0.00000
O318 O 0.65354 0.41655 0.30698 0.00000
O319 O 0.65264 0.42864 0.36790 0.00000
C320 C 0.72845 0.26278 0.71975 0.00000
H321 H 0.75769 0.19728 0.74371 0.00000
H322 H 0.72062 0.20490 0.76499 0.00000
H323 H 0.77845 0.25940 0.74977 0.00000
H324 H 0.74455 0.26795 0.77573 0.00000
H325 H 0.73269 0.28934 0.71445 0.00000
H326 H 0.73686 0.24863 0.69829 0.00000
C327 C 0.74735 0.21173 0.76395 0.00000
C328 C 0.75211 0.25298 0.75448 0.00000
C329 C 0.73496 0.27547 0.27642 0.00000
H330 H 0.79709 0.23367 0.26880 0.00000
H331 H 0.80203 0.27117 0.24652 0.00000
H332 H 0.73588 0.22431 0.24799 0.00000
H333 H 0.74046 0.25869 0.22094 0.00000
H334 H 0.70777 0.27631 0.27518 0.00000
H335 H 0.74158 0.26519 0.30055 0.00000
C336 C 0.79025 0.24595 0.24579 0.00000
C337 C 0.74807 0.24911 0.24506 0.00000
C338 C 0.74318 0.79263 0.22077 0.00000
H339 H 0.71483 0.76936 0.28830 0.00000
H340 H 0.74610 0.74315 0.27499 0.00000
H341 H 0.68892 0.76999 0.22905 0.00000
H342 H 0.71612 0.73965 0.21500 0.00000
H343 H 0.73815 0.80006 0.19522 0.00000
H344 H 0.74026 0.81439 0.23691 0.00000
C345 C 0.71983 0.74853 0.27168 0.00000
C346 C 0.71406 0.76104 0.23183 0.00000
C347 C 0.18883 0.74010 0.23987 0.00000
H348 H 0.24559 0.72714 0.28988 0.00000
H349 H 0.26101 0.72919 0.24907 0.00000
H350 H 0.19341 0.69104 0.27024 0.00000
H351 H 0.20966 0.68752 0.22975 0.00000
H352 H 0.16365 0.73314 0.23065 0.00000
H353 H 0.18650 0.75613 0.26180 0.00000
C354 C 0.24758 0.71299 0.26670 0.00000
C355 C 0.20833 0.70413 0.25139 0.00000
C356 C 0.30825 0.24450 0.26244 0.00000
H357 H 0.25765 0.22611 0.20590 0.00000
H358 H 0.23677 0.23287 0.24349 0.00000
H359 H 0.30204 0.19226 0.23596 0.00000
H360 H 0.27970 0.19344 0.27358 0.00000
H361 H 0.33100 0.23854 0.27583 0.00000
H362 H 0.31568 0.25793 0.23993 0.00000
C363 C 0.25061 0.21469 0.22952 0.00000
C364 C 0.28617 0.20749 0.25116 0.00000
C365 C 0.78103 0.77624 0.75974 0.00000
H366 H 0.71330 0.74211 0.73790 0.00000
H367 H 0.73712 0.71425 0.76053 0.00000
H368 H 0.76528 0.76308 0.70480 0.00000
H369 H 0.78964 0.73225 0.72262 0.00000
H370 H 0.80357 0.79094 0.75274 0.00000
H371 H 0.76117 0.79353 0.76363 0.00000
C372 C 0.73392 0.72544 0.73612 0.00000
C373 C 0.76935 0.74883 0.72734 0.00000
C374 C 0.27102 0.74356 0.70792 0.00000
H375 H 0.25352 0.80639 0.74790 0.00000
H376 H 0.27400 0.77832 0.77348 0.00000
H377 H 0.21685 0.75802 0.72098 0.00000
H378 H 0.23242 0.72904 0.74928 0.00000
H379 H 0.26259 0.72333 0.69093 0.00000
H380 H 0.27667 0.76583 0.69307 0.00000
C381 C 0.24994 0.78343 0.76212 0.00000
C382 C 0.23892 0.75162 0.73520 0.00000
C383 C 0.22349 0.21703 0.76703 0.00000
H384 H 0.28161 0.26915 0.75511 0.00000
H385 H 0.24305 0.28830 0.75483 0.00000
H386 H 0.25678 0.21938 0.71958 0.00000
H387 H 0.21893 0.23940 0.71376 0.00000
H388 H 0.21124 0.19287 0.76030 0.00000
H389 H 0.24417 0.21247 0.78406 0.00000
C390 C 0.25955 0.27346 0.73989 0.00000
C391 C 0.23942 0.23586 0.73133 0.00000
C392 C 0.83048 0.03589 0.82478 0.00000
H393 H 0.80982 0.96067 0.81898 0.00000
H394 H 0.82141 0.97147 0.86020 0.00000
H395 H 0.86015 0.99621 0.79598 0.00000
H396 H 0.87631 0.00395 0.83653 0.00000
H397 H 0.84550 0.05717 0.81524 0.00000
H398 H 0.80803 0.03251 0.80916 0.00000
C399 C 0.83120 0.96573 0.83566 0.00000
C400 C 0.85326 0.00010 0.82185 0.00000
C401 C 0.03628 0.11936 0.14880 0.00000
H402 H 0.97823 0.16054 0.12372 0.00000
H403 H 0.99589 0.17827 0.16053 0.00000
H404 H 0.97990 0.10090 0.14775 0.00000
H405 H 0.99272 0.11706 0.18716 0.00000
H406 H 0.04515 0.09486 0.15508 0.00000
H407 H 0.03799 0.12216 0.12185 0.00000
C408 C 0.97879 0.15830 0.15076 0.00000
C409 C 0.99467 0.12101 0.16037 0.00000
C410 C 0.86508 0.96946 0.17500 0.00000
H411 H 0.85533 0.04178 0.19885 0.00000
H412 H 0.82478 0.02919 0.16886 0.00000
H413 H 0.90175 0.01543 0.16452 0.00000
H414 H 0.87370 0.00658 0.13100 0.00000
H415 H 0.88207 0.95121 0.16557 0.00000
H416 H 0.86830 0.97099 0.20202 0.00000
C417 C 0.85079 0.03833 0.17219 0.00000
C418 C 0.87578 0.00832 0.15810 0.00000
C419 C 0.95402 0.85690 0.15573 0.00000
H420 H 0.01436 0.82073 0.12843 0.00000
H421 H 0.00200 0.80410 0.16702 0.00000
H422 H 0.00801 0.88119 0.15000 0.00000
H423 H 0.00010 0.86683 0.19078 0.00000
H424 H 0.94295 0.88057 0.16158 0.00000
H425 H 0.95028 0.85192 0.12913 0.00000
C426 C 0.01591 0.82492 0.15528 0.00000
C427 C 0.99669 0.86070 0.16442 0.00000
C428 C 0.16731 0.02162 0.15545 0.00000
H429 H 0.14425 0.95355 0.12390 0.00000
H430 H 0.11873 0.96316 0.15770 0.00000
H431 H 0.19766 0.97335 0.15689 0.00000
H432 H 0.17440 0.97869 0.19348 0.00000
H433 H 0.18787 0.03780 0.16549 0.00000
H434 H 0.16767 0.02358 0.12835 0.00000
C435 C 0.14283 0.95359 0.15100 0.00000
C436 C 0.17359 0.98050 0.16637 0.00000
C437 C 0.97106 0.86433 0.84232 0.00000
H438 H 0.04213 0.87269 0.81348 0.00000
H439 H 0.03068 0.83013 0.81928 0.00000
H440 H 0.01777 0.88841 0.87061 0.00000
H441 H 0.01025 0.84583 0.88054 0.00000
H442 H 0.95341 0.87174 0.86120 0.00000
H443 H 0.97138 0.88309 0.82274 0.00000
C444 C 0.03988 0.85304 0.83206 0.00000
C445 C 0.01075 0.86373 0.86019 0.00000
C446 C 0.18509 0.82740 0.96458 0.00000
H447 H 0.15442 0.78542 0.02173 0.00000
H448 H 0.12871 0.81819 0.01147 0.00000
H449 H 0.20762 0.82484 0.01831 0.00000
H450 H 0.18331 0.85999 0.01308 0.00000
H451 H 0.20700 0.84107 0.95457 0.00000
H452 H 0.18743 0.80085 0.95909 0.00000
C453 C 0.15133 0.81216 0.02505 0.00000
C454 C 0.18449 0.83331 0.00748 0.00000
C455 C 0.83465 0.18148 0.04409 0.00000
H456 H 0.79547 0.16880 0.97824 0.00000
H457 H 0.81957 0.13457 0.98769 0.00000
H458 H 0.84441 0.21071 0.99479 0.00000
H459 H 0.87176 0.17790 0.99990 0.00000
H460 H 0.85121 0.19829 0.05906 0.00000
H461 H 0.80915 0.18949 0.04691 0.00000
C462 C 0.82069 0.15975 0.97744 0.00000
C463 C 0.84587 0.18479 0.00253 0.00000
C464 C 0.84032 0.86681 0.96012 0.00000
H465 H 0.86325 0.89136 0.03014 0.00000
H466 H 0.88061 0.85307 0.02029 0.00000
H467 H 0.80555 0.87033 0.00625 0.00000
H468 H 0.81959 0.82963 0.00010 0.00000
H469 H 0.81966 0.86156 0.94259 0.00000
H470 H 0.84684 0.89365 0.95948 0.00000
C471 C 0.85795 0.86436 0.02886 0.00000
C472 C 0.82724 0.85623 0.99990 0.00000
C473 C 0.16573 0.13148 0.95449 0.00000
H474 H 0.15299 0.10800 0.02638 0.00000
H475 H 0.13260 0.14503 0.01854 0.00000
H476 H 0.20633 0.13100 0.99666 0.00000
H477 H 0.18962 0.17070 0.99243 0.00000
H478 H 0.18380 0.13719 0.93493 0.00000
H479 H 0.16047 0.10442 0.95446 0.00000
C480 C 0.15678 0.13511 0.02464 0.00000
C481 C 0.18327 0.14382 0.99272 0.00000
C482 C 0.62168 0.62574 0.53863 0.00000
H483 H 0.64585 0.60682 0.46858 0.00000
H484 H 0.66340 0.64625 0.48104 0.00000
H485 H 0.58786 0.62123 0.49089 0.00000
H486 H 0.60220 0.66295 0.49935 0.00000
H487 H 0.60070 0.62817 0.55546 0.00000
H488 H 0.62792 0.59949 0.53826 0.00000
C489 C 0.64081 0.63326 0.47093 0.00000
C490 C 0.60956 0.63706 0.49882 0.00000
C491 C 0.35310 0.66054 0.45509 0.00000
H492 H 0.34735 0.63428 0.52685 0.00000
H493 H 0.31082 0.65391 0.51507 0.00000
H494 H 0.38474 0.68150 0.50060 0.00000
H495 H 0.34967 0.70525 0.49257 0.00000
H496 H 0.36779 0.67485 0.43689 0.00000
H497 H 0.36274 0.63554 0.45621 0.00000
C498 C 0.33656 0.65855 0.52384 0.00000
C499 C 0.35822 0.67982 0.49390 0.00000
C500 C 0.36091 0.31548 0.46571 0.00000
H501 H 0.32928 0.31756 0.53537 0.00000
H502 H 0.33294 0.35790 0.51838 0.00000
H503 H 0.38864 0.30472 0.51562 0.00000
H504 H 0.39626 0.34639 0.50259 0.00000
H505 H 0.38111 0.30717 0.45013 0.00000
H506 H 0.34245 0.29455 0.46804 0.00000
C507 C 0.34677 0.33885 0.53099 0.00000
C508 C 0.37696 0.32624 0.50496 0.00000
C509 C 0.53896 0.64454 0.64463 0.00000
H510 H 0.47978 0.68921 0.63164 0.00000
H511 H 0.48664 0.68470 0.67463 0.00000
H512 H 0.48750 0.62620 0.62113 0.00000
H513 H 0.48941 0.61863 0.66430 0.00000
H514 H 0.55082 0.62116 0.63933 0.00000
H515 H 0.54537 0.66193 0.62462 0.00000
C516 C 0.47547 0.67239 0.65253 0.00000
C517 C 0.49581 0.63691 0.64507 0.00000
C518 C 0.35030 0.54911 0.63563 0.00000
H519 H 0.31113 0.48199 0.64799 0.00000
H520 H 0.33408 0.49515 0.68377 0.00000
H521 H 0.36118 0.49817 0.61009 0.00000
H522 H 0.38744 0.50696 0.64500 0.00000
H523 H 0.36728 0.56379 0.61970 0.00000
H524 H 0.32509 0.55004 0.62512 0.00000
C525 C 0.33602 0.48316 0.65940 0.00000
C526 C 0.36180 0.50784 0.63558 0.00000
C527 C 0.45204 0.32142 0.67606 0.00000
H528 H 0.52712 0.33505 0.69205 0.00000
H529 H 0.51594 0.35546 0.65534 0.00000
H530 H 0.49242 0.28137 0.67411 0.00000
H531 H 0.48438 0.29816 0.63454 0.00000
H532 H 0.43104 0.30309 0.67295 0.00000
H533 H 0.45535 0.32658 0.70268 0.00000
C534 C 0.52210 0.33134 0.66550 0.00000
C535 C 0.48804 0.30443 0.66090 0.00000
C536 C 0.63896 0.52232 0.68274 0.00000
H537 H 0.66825 0.45274 0.68766 0.00000
H538 H 0.66679 0.46570 0.64599 0.00000
H539 H 0.60905 0.47334 0.69830 0.00000
H540 H 0.60355 0.48218 0.65570 0.00000
H541 H 0.61897 0.53858 0.68939 0.00000
H542 H 0.65650 0.52220 0.70374 0.00000
C543 C 0.65175 0.45489 0.66609 0.00000
C544 C 0.62196 0.48194 0.67594 0.00000
C545 C 0.55468 0.36574 0.32883 0.00000
H546 H 0.48395 0.37754 0.35482 0.00000
H547 H 0.49476 0.33630 0.36266 0.00000
H548 H 0.50804 0.37497 0.29538 0.00000
H549 H 0.51488 0.33198 0.29940 0.00000
H550 H 0.57228 0.36777 0.30828 0.00000
H551 H 0.55481 0.39010 0.34135 0.00000
C552 C 0.48577 0.35284 0.34348 0.00000
C553 C 0.51480 0.35578 0.31293 0.00000
C554 C 0.65864 0.46144 0.32134 0.00000
H555 H 0.67792 0.53559 0.30737 0.00000
H556 H 0.67950 0.52778 0.35034 0.00000
H557 H 0.62214 0.50027 0.30098 0.00000
H558 H 0.61921 0.49564 0.34451 0.00000
H559 H 0.64096 0.44005 0.31725 0.00000
H560 H 0.67524 0.46307 0.29994 0.00000
C561 C 0.66264 0.53230 0.32954 0.00000
C562 C 0.63668 0.49768 0.32383 0.00000
C563 C 0.44585 0.64489 0.35622 0.00000
H564 H 0.51280 0.68191 0.33856 0.00000
H565 H 0.49995 0.65348 0.30670 0.00000
H566 H 0.49676 0.63859 0.38383 0.00000
H567 H 0.48830 0.60707 0.35340 0.00000
H568 H 0.43120 0.63063 0.37450 0.00000
H569 H 0.44471 0.67140 0.36257 0.00000
C570 C 0.51184 0.65556 0.33125 0.00000
C571 C 0.48721 0.63383 0.35861 0.00000
C572 C 0.37551 0.45841 0.35064 0.00000
H573 H 0.33509 0.51672 0.37642 0.00000
H574 H 0.31628 0.49869 0.34029 0.00000
H575 H 0.39396 0.51478 0.35066 0.00000
H576 H 0.37664 0.50156 0.31184 0.00000
H577 H 0.39980 0.44947 0.34373 0.00000
H578 H 0.37352 0.45698 0.37770 0.00000
C579 C 0.33651 0.51588 0.34933 0.00000
C580 C 0.37350 0.49989 0.33876 0.00000
C581 C 0.64261 0.32467 0.53386 0.00000
H582 H 0.66899 0.30873 0.46389 0.00000
H583 H 0.69822 0.33481 0.48623 0.00000
H584 H 0.62008 0.34336 0.48395 0.00000
H585 H 0.64820 0.37359 0.50267 0.00000
H586 H 0.62214 0.33320 0.54896 0.00000
H587 H 0.63733 0.29817 0.52811 0.00000
C588 C 0.67501 0.33455 0.47170 0.00000
C589 C 0.64408 0.34694 0.49695 0.00000
C590 C 0.17548 0.04364 0.82934 0.00000
H591 H 0.16978 0.96944 0.80735 0.00000
H592 H 0.13910 0.97773 0.83692 0.00000
H593 H 0.21493 0.00428 0.84113 0.00000
H594 H 0.18702 0.00936 0.87433 0.00000
H595 H 0.19143 0.06485 0.83834 0.00000
H596 H 0.17834 0.04190 0.80237 0.00000
C597 C 0.16548 0.97286 0.83391 0.00000
C598 C 0.18876 0.00723 0.84728 0.00000
C599 C 0.94550 0.14371 0.86435 0.00000
H600 H 0.01270 0.18309 0.85294 0.00000
H601 H 0.99990 0.16121 0.81656 0.00000
H602 H 0.99644 0.13197 0.88941 0.00000
H603 H 0.98753 0.10675 0.85379 0.00000
H604 H 0.93079 0.12631 0.87982 0.00000
H605 H 0.94466 0.16862 0.87558 0.00000
C606 C 0.01145 0.15853 0.84083 0.00000
C607 C 0.98673 0.13211 0.86395 0.00000
loop_
_geom_bond_atom_site_label_1
_geom_bond_atom_site_label_2
_geom_bond_distance
_geom_bond_site_symmetry_2
_ccdc_geom_bond_type
O0 Zn3 2.062 . S
O0 C15 1.265 . A
O1 Zn2 1.961 . S
O1 C15 1.292 . A
Zn2 O4 2.038 . S
Zn2 O10 2.174 . S
Zn2 O14 2.069 . S
Zn3 O4 2.099 . S
Zn3 O13 2.024 . S
Zn3 O18 2.138 . S
O4 Zn5 1.953 . S
O4 H17 0.992 . S
Zn5 O7 1.967 . S
Zn5 O9 1.951 . S
Zn5 O19 1.961 . S
C6 O9 1.283 . A
C6 O10 1.233 . A
O7 C16 1.248 . S
C8 O18 1.243 . A
C8 O19 1.269 . A
O11 C16 1.210 . D
C12 O13 1.217 . A
C12 O14 1.238 . A
O20 Zn23 2.062 . S
O20 C35 1.265 . A
O21 Zn22 1.961 . S
O21 C35 1.292 . A
Zn22 O24 2.038 . S
Zn22 O30 2.174 . S
Zn22 O34 2.069 . S
Zn23 O24 2.099 . S
Zn23 O33 2.024 . S
Zn23 O38 2.138 . S
O24 Zn25 1.953 . S
O24 H37 0.992 . S
Zn25 O27 1.967 . S
Zn25 O29 1.951 . S
Zn25 O39 1.961 . S
C26 O29 1.283 . A
C26 O30 1.233 . A
O27 C36 1.248 . S
C28 O38 1.243 . A
C28 O39 1.269 . A
O31 C36 1.210 . D
C32 O33 1.217 . A
C32 O34 1.238 . A
O40 Zn43 2.062 . S
O40 C55 1.265 . A
O41 Zn42 1.961 . S
O41 C55 1.292 . A
Zn42 O44 2.038 . S
Zn42 O50 2.174 . S
Zn42 O54 2.069 . S
Zn43 O44 2.099 . S
Zn43 O53 2.024 . S
Zn43 O58 2.138 . S
O44 Zn45 1.953 . S
O44 H57 0.992 . S
Zn45 O47 1.967 . S
Zn45 O49 1.951 . S
Zn45 O59 1.961 . S
C46 O49 1.283 . A
C46 O50 1.233 . A
O47 C56 1.248 . S
C48 O58 1.243 . A
C48 O59 1.269 . A
O51 C56 1.210 . D
C52 O53 1.217 . A
C52 O54 1.238 . A
O60 Zn63 2.062 . S
O60 C75 1.265 . A
O61 Zn62 1.961 . S
O61 C75 1.292 . A
Zn62 O64 2.038 . S
Zn62 O70 2.174 . S
Zn62 O74 2.069 . S
Zn63 O64 2.099 . S
Zn63 O73 2.024 . S
Zn63 O78 2.138 . S
O64 Zn65 1.953 . S
O64 H77 0.992 . S
Zn65 O67 1.967 . S
Zn65 O69 1.951 . S
Zn65 O79 1.961 . S
C66 O69 1.283 . A
C66 O70 1.233 . A
O67 C76 1.248 . S
C68 O78 1.243 . A
C68 O79 1.269 . A
O71 C76 1.210 . D
C72 O73 1.217 . A
C72 O74 1.238 . A
O80 Zn83 2.062 . S
O80 C95 1.265 . A
O81 Zn82 1.961 . S
O81 C95 1.292 . A
Zn82 O84 2.038 . S
Zn82 O90 2.174 . S
Zn82 O94 2.069 . S
Zn83 O84 2.099 . S
Zn83 O93 2.024 . S
Zn83 O98 2.138 . S
O84 Zn85 1.953 . S
O84 H97 0.992 . S
Zn85 O87 1.967 . S
Zn85 O89 1.951 . S
Zn85 O99 1.961 . S
C86 O89 1.283 . A
C86 O90 1.233 . A
O87 C96 1.248 . S
C88 O98 1.243 . A
C88 O99 1.269 . A
O91 C96 1.210 . D
C92 O93 1.217 . A
C92 O94 1.238 . A
O100 Zn103 2.062 . S
O100 C115 1.265 . A
O101 Zn102 1.961 . S
O101 C115 1.292 . A
Zn102 O104 2.038 . S
Zn102 O110 2.174 . S
Zn102 O114 2.069 . S
Zn103 O104 2.099 . S
Zn103 O113 2.024 . S
Zn103 O118 2.138 . S
O104 Zn105 1.953 . S
O104 H117 0.992 . S
Zn105 O107 1.967 . S
Zn105 O109 1.951 . S
Zn105 O119 1.961 . S
C106 O109 1.283 . A
C106 O110 1.233 . A
O107 C116 1.248 . S
C108 O118 1.243 . A
C108 O119 1.269 . A
O111 C116 1.210 . D
C112 O113 1.217 . A
C112 O114 1.238 . A
O120 Zn123 2.062 . S
O120 C135 1.265 . A
O121 Zn122 1.961 . S
O121 C135 1.292 . A
Zn122 O124 2.038 . S
Zn122 O130 2.174 . S
Zn122 O134 2.069 . S
Zn123 O124 2.099 . S
Zn123 O133 2.024 . S
Zn123 O138 2.138 . S
O124 Zn125 1.953 . S
O124 H137 0.992 . S
Zn125 O127 1.967 . S
Zn125 O129 1.951 . S
Zn125 O139 1.961 . S
C126 O129 1.283 . A
C126 O130 1.233 . A
O127 C136 1.248 . S
C128 O138 1.243 . A
C128 O139 1.269 . A
O131 C136 1.210 . D
C132 O133 1.217 . A
C132 O134 1.238 . A
O140 Zn143 2.062 . S
O140 C155 1.265 . A
O141 Zn142 1.961 . S
O141 C155 1.292 . A
Zn142 O144 2.038 . S
Zn142 O150 2.174 . S
Zn142 O154 2.069 . S
Zn143 O144 2.099 . S
Zn143 O153 2.024 . S
Zn143 O158 2.138 . S
O144 Zn145 1.953 . S
O144 H157 0.992 . S
Zn145 O147 1.967 . S
Zn145 O149 1.951 . S
Zn145 O159 1.961 . S
C146 O149 1.283 . A
C146 O150 1.233 . A
O147 C156 1.248 . S
C148 O158 1.243 . A
C148 O159 1.269 . A
O151 C156 1.210 . D
C152 O153 1.217 . A
C152 O154 1.238 . A
O160 Zn163 2.062 . S
O160 C175 1.265 . A
O161 Zn162 1.961 . S
O161 C175 1.292 . A
Zn162 O164 2.038 . S
Zn162 O170 2.174 . S
Zn162 O174 2.069 . S
Zn163 O164 2.099 . S
Zn163 O173 2.024 . S
Zn163 O178 2.138 . S
O164 Zn165 1.953 . S
O164 H177 0.992 . S
Zn165 O167 1.967 . S
Zn165 O169 1.951 . S
Zn165 O179 1.961 . S
C166 O169 1.283 . A
C166 O170 1.233 . A
O167 C176 1.248 . S
C168 O178 1.243 . A
C168 O179 1.269 . A
O171 C176 1.210 . D
C172 O173 1.217 . A
C172 O174 1.238 . A
O180 Zn183 2.062 . S
O180 C195 1.265 . A
O181 Zn182 1.961 . S
O181 C195 1.292 . A
Zn182 O184 2.038 . S
Zn182 O190 2.174 . S
Zn182 O194 2.069 . S
Zn183 O184 2.099 . S
Zn183 O193 2.024 . S
Zn183 O198 2.138 . S
O184 Zn185 1.953 . S
O184 H197 0.992 . S
Zn185 O187 1.967 . S
Zn185 O189 1.951 . S
Zn185 O199 1.961 . S
C186 O189 1.283 . A
C186 O190 1.233 . A
O187 C196 1.248 . S
C188 O198 1.243 . A
C188 O199 1.269 . A
O191 C196 1.210 . D
C192 O193 1.217 . A
C192 O194 1.238 . A
O200 Zn203 2.062 . S
O200 C215 1.265 . A
O201 Zn202 1.961 . S
O201 C215 1.292 . A
Zn202 O204 2.038 . S
Zn202 O210 2.174 . S
Zn202 O214 2.069 . S
Zn203 O204 2.099 . S
Zn203 O213 2.024 . S
Zn203 O218 2.138 . S
O204 Zn205 1.953 . S
O204 H217 0.992 . S
Zn205 O207 1.967 . S
Zn205 O209 1.951 . S
Zn205 O219 1.961 . S
C206 O209 1.283 . A
C206 O210 1.233 . A
O207 C216 1.248 . S
C208 O218 1.243 . A
C208 O219 1.269 . A
O211 C216 1.210 . D
C212 O213 1.217 . A
C212 O214 1.238 . A
O220 Zn223 2.062 . S
O220 C235 1.265 . A
O221 Zn222 1.961 . S
O221 C235 1.292 . A
Zn222 O224 2.038 . S
Zn222 O230 2.174 . S
Zn222 O234 2.069 . S
Zn223 O224 2.099 . S
Zn223 O233 2.024 . S
Zn223 O238 2.138 . S
O224 Zn225 1.953 . S
O224 H237 0.992 . S
Zn225 O227 1.967 . S
Zn225 O229 1.951 . S
Zn225 O239 1.961 . S
C226 O229 1.283 . A
C226 O230 1.233 . A
O227 C236 1.248 . S
C228 O238 1.243 . A
C228 O239 1.269 . A
O231 C236 1.210 . D
C232 O233 1.217 . A
C232 O234 1.238 . A
O240 Zn243 2.062 . S
O240 C255 1.265 . A
O241 Zn242 1.961 . S
O241 C255 1.292 . A
Zn242 O244 2.038 . S
Zn242 O250 2.174 . S
Zn242 O254 2.069 . S
Zn243 O244 2.099 . S
Zn243 O253 2.024 . S
Zn243 O258 2.138 . S
O244 Zn245 1.953 . S
O244 H257 0.992 . S
Zn245 O247 1.967 . S
Zn245 O249 1.951 . S
Zn245 O259 1.961 . S
C246 O249 1.283 . A
C246 O250 1.233 . A
O247 C256 1.248 . S
C248 O258 1.243 . A
C248 O259 1.269 . A
O251 C256 1.210 . D
C252 O253 1.217 . A
C252 O254 1.238 . A
O260 Zn263 2.062 . S
O260 C275 1.265 . A
O261 Zn262 1.961 . S
O261 C275 1.292 . A
Zn262 O264 2.038 . S
Zn262 O270 2.174 . S
Zn262 O274 2.069 . S
Zn263 O264 2.099 . S
Zn263 O273 2.024 . S
Zn263 O278 2.138 . S
O264 Zn265 1.953 . S
O264 H277 0.992 . S
Zn265 O267 1.967 . S
Zn265 O269 1.951 . S
Zn265 O279 1.961 . S
C266 O269 1.283 . A
C266 O270 1.233 . A
O267 C276 1.248 . S
C268 O278 1.243 . A
C268 O279 1.269 . A
O271 C276 1.210 . D
C272 O273 1.217 . A
C272 O274 1.238 . A
O280 Zn283 2.062 . S
O280 C295 1.265 . A
O281 Zn282 1.961 . S
O281 C295 1.292 . A
Zn282 O284 2.038 . S
Zn282 O290 2.174 . S
Zn282 O294 2.069 . S
Zn283 O284 2.099 . S
Zn283 O293 2.024 . S
Zn283 O298 2.138 . S
O284 Zn285 1.953 . S
O284 H297 0.992 . S
Zn285 O287 1.967 . S
Zn285 O289 1.951 . S
Zn285 O299 1.961 . S
C286 O289 1.283 . A
C286 O290 1.233 . A
O287 C296 1.248 . S
C288 O298 1.243 . A
C288 O299 1.269 . A
O291 C296 1.210 . D
C292 O293 1.217 . A
C292 O294 1.238 . A
O300 Zn303 2.062 . S
O300 C315 1.265 . A
O301 Zn302 1.961 . S
O301 C315 1.292 . A
Zn302 O304 2.038 . S
Zn302 O310 2.174 . S
Zn302 O314 2.069 . S
Zn303 O304 2.099 . S
Zn303 O313 2.024 . S
Zn303 O318 2.138 . S
O304 Zn305 1.953 . S
O304 H317 0.992 . S
Zn305 O307 1.967 . S
Zn305 O309 1.951 . S
Zn305 O319 1.961 . S
C306 O309 1.283 . A
C306 O310 1.233 . A
O307 C316 1.248 . S
C308 O318 1.243 . A
C308 O319 1.269 . A
O311 C316 1.210 . D
C312 O313 1.217 . A
C312 O314 1.238 . A
C320 H325 0.970 . S
C320 H326 0.971 . S
C320 C328 1.545 . S
H321 C327 0.970 . S
H322 C327 0.970 . S
H323 C328 0.970 . S
H324 C328 0.971 . S
C327 C328 1.511 . S
C329 H334 0.970 . S
C329 H335 0.971 . S
C329 C337 1.545 . S
H330 C336 0.970 . S
H331 C336 0.970 . S
H332 C337 0.970 . S
H333 C337 0.971 . S
C336 C337 1.511 . S
C338 H343 0.970 . S
C338 H344 0.971 . S
C338 C346 1.545 . S
H339 C345 0.970 . S
H340 C345 0.970 . S
H341 C346 0.970 . S
H342 C346 0.971 . S
C345 C346 1.511 . S
C347 H352 0.970 . S
C347 H353 0.971 . S
C347 C355 1.545 . S
H348 C354 0.970 . S
H349 C354 0.970 . S
H350 C355 0.970 . S
H351 C355 0.971 . S
C354 C355 1.511 . S
C356 H361 0.970 . S
C356 H362 0.971 . S
C356 C364 1.545 . S
H357 C363 0.970 . S
H358 C363 0.970 . S
H359 C364 0.970 . S
H360 C364 0.971 . S
C363 C364 1.511 . S
C365 H370 0.970 . S
C365 H371 0.971 . S
C365 C373 1.545 . S
H366 C372 0.970 . S
H367 C372 0.970 . S
H368 C373 0.970 . S
H369 C373 0.971 . S
C372 C373 1.511 . S
C374 H379 0.970 . S
C374 H380 0.971 . S
C374 C382 1.545 . S
H375 C381 0.970 . S
H376 C381 0.970 . S
H377 C382 0.970 . S
H378 C382 0.971 . S
C381 C382 1.511 . S
C383 H388 0.970 . S
C383 H389 0.971 . S
C383 C391 1.545 . S
H384 C390 0.970 . S
H385 C390 0.970 . S
H386 C391 0.970 . S
H387 C391 0.971 . S
C390 C391 1.511 . S
C392 H397 0.970 . S
C392 H398 0.971 . S
C392 C400 1.548 . S
H393 C399 0.970 . S
H394 C399 0.970 . S
H395 C400 0.969 1_565 S
H396 C400 0.972 . S
C399 C400 1.508 1_565 S
C401 H406 0.970 . S
C401 H407 0.971 . S
C401 C409 1.545 1_455 S
H402 C408 0.970 . S
H403 C408 0.970 . S
H404 C409 0.970 . S
H405 C409 0.971 . S
C408 C409 1.511 . S
C410 H415 0.970 . S
C410 H416 0.971 . S
C410 C418 1.545 1_565 S
H411 C417 0.970 . S
H412 C417 0.970 . S
H413 C418 0.970 . S
H414 C418 0.971 . S
C417 C418 1.511 . S
C419 H424 0.970 . S
C419 H425 0.971 . S
C419 C427 1.545 . S
H420 C426 0.970 . S
H421 C426 0.970 . S
H422 C427 0.970 1_455 S
H423 C427 0.970 1_455 S
C426 C427 1.511 1_455 S
C428 H433 0.970 . S
C428 H434 0.971 . S
C428 C436 1.545 1_545 S
H429 C435 0.970 . S
H430 C435 0.970 . S
H431 C436 0.970 . S
H432 C436 0.971 . S
C435 C436 1.511 . S
C437 H442 0.970 . S
C437 H443 0.971 . S
C437 C445 1.545 1_655 S
H438 C444 0.970 . S
H439 C444 0.970 . S
H440 C445 0.970 . S
H441 C445 0.971 . S
C444 C445 1.511 . S
C446 H451 0.970 . S
C446 H452 0.971 . S
C446 C454 1.545 1_556 S
H447 C453 0.970 . S
H448 C453 0.970 . S
H449 C454 0.970 . S
H450 C454 0.971 . S
C453 C454 1.511 . S
C455 H460 0.970 . S
C455 H461 0.971 . S
C455 C463 1.545 . S
H456 C462 0.970 . S
H457 C462 0.970 . S
H458 C463 0.970 1_556 S
H459 C463 0.971 1_556 S
C462 C463 1.511 1_556 S
C464 H469 0.970 . S
C464 H470 0.971 . S
C464 C472 1.544 . S
H465 C471 0.970 . S
H466 C471 0.970 . S
H467 C472 0.970 1_554 S
H468 C472 0.971 1_554 S
C471 C472 1.512 1_554 S
C473 H478 0.970 . S
C473 H479 0.971 . S
C473 C481 1.545 . S
H474 C480 0.970 . S
H475 C480 0.970 . S
H476 C481 0.970 . S
H477 C481 0.971 . S
C480 C481 1.511 1_554 S
C482 H487 0.970 . S
C482 H488 0.971 . S
C482 C490 1.545 . S
H483 C489 0.970 . S
H484 C489 0.970 . S
H485 C490 0.970 . S
H486 C490 0.971 . S
C489 C490 1.511 . S
C491 H496 0.970 . S
C491 H497 0.971 . S
C491 C499 1.545 . S
H492 C498 0.970 . S
H493 C498 0.970 . S
H494 C499 0.970 . S
H495 C499 0.971 . S
C498 C499 1.511 . S
C500 H505 0.970 . S
C500 H506 0.971 . S
C500 C508 1.545 . S
H501 C507 0.970 . S
H502 C507 0.970 . S
H503 C508 0.970 . S
H504 C508 0.971 . S
C507 C508 1.511 . S
C509 H514 0.970 . S
C509 H515 0.971 . S
C509 C517 1.545 . S
H510 C516 0.970 . S
H511 C516 0.970 . S
H512 C517 0.970 . S
H513 C517 0.971 . S
C516 C517 1.511 . S
C518 H523 0.970 . S
C518 H524 0.971 . S
C518 C526 1.545 . S
H519 C525 0.970 . S
H520 C525 0.970 . S
H521 C526 0.970 . S
H522 C526 0.971 . S
C525 C526 1.511 . S
C527 H532 0.970 . S
C527 H533 0.971 . S
C527 C535 1.545 . S
H528 C534 0.970 . S
H529 C534 0.970 . S
H530 C535 0.970 . S
H531 C535 0.971 . S
C534 C535 1.511 . S
C536 H541 0.970 . S
C536 H542 0.971 . S
C536 C544 1.545 . S
H537 C543 0.970 . S
H538 C543 0.970 . S
H539 C544 0.970 . S
H540 C544 0.971 . S
C543 C544 1.511 . S
C545 H550 0.970 . S
C545 H551 0.971 . S
C545 C553 1.545 . S
H546 C552 0.970 . S
H547 C552 0.970 . S
H548 C553 0.970 . S
H549 C553 0.971 . S
C552 C553 1.511 . S
C554 H559 0.970 . S
C554 H560 0.971 . S
C554 C562 1.545 . S
H555 C561 0.970 . S
H556 C561 0.970 . S
H557 C562 0.970 . S
H558 C562 0.971 . S
C561 C562 1.511 . S
C563 H568 0.970 . S
C563 H569 0.971 . S
C563 C571 1.545 . S
H564 C570 0.970 . S
H565 C570 0.970 . S
H566 C571 0.970 . S
H567 C571 0.971 . S
C570 C571 1.511 . S
C572 H577 0.970 . S
C572 H578 0.971 . S
C572 C580 1.545 . S
H573 C579 0.970 . S
H574 C579 0.970 . S
H575 C580 0.970 . S
H576 C580 0.971 . S
C579 C580 1.511 . S
C581 H586 0.970 . S
C581 H587 0.971 . S
C581 C589 1.545 . S
H582 C588 0.970 . S
H583 C588 0.970 . S
H584 C589 0.970 . S
H585 C589 0.971 . S
C588 C589 1.511 . S
C590 H595 0.970 . S
C590 H596 0.971 . S
C590 C598 1.545 . S
H591 C597 0.970 . S
H592 C597 0.970 . S
H593 C598 0.970 . S
H594 C598 0.971 . S
C597 C598 1.511 1_565 S
C599 H604 0.970 . S
C599 H605 0.971 . S
C599 C607 1.545 . S
H600 C606 0.970 . S
H601 C606 0.963 1_655 S
H602 C607 0.970 . S
H603 C607 0.971 . S
C606 C607 1.511 1_455 S
C320 C292 1.051 . S
C327 C12 1.328 . S
C329 C312 1.044 . S
C336 C32 1.390 . S
C338 C52 1.177 . S
C345 C172 1.442 . S
C347 C72 1.236 . S
C354 C192 1.294 . S
C356 C212 1.239 . S
C363 C92 1.354 . S
C365 C112 1.123 . S
C372 C232 1.410 . S
C374 C252 1.023 . S
C381 C132 1.321 . S
C383 C152 1.129 . S
C390 C272 1.333 . S
C392 C8 1.052 . S
C399 C108 1.503 . S
C401 C96 1.396 . S
C408 C28 1.541 . S
C410 C46 0.851 . S
C417 C36 1.154 . S
C419 C48 1.164 . S
C426 C68 1.524 . S
C428 C88 1.585 . S
C435 C76 1.362 . S
C437 C106 0.909 . S
C444 C136 1.312 . S
C446 C126 1.150 . S
C453 C66 1.291 . S
C455 C26 1.022 . S
C462 C6 1.206 . S
C464 C116 1.425 . S
C471 C56 1.416 . S
C473 C156 1.352 . S
C480 C86 1.284 . S
C482 C236 1.394 . S
C489 C176 1.505 . S
C491 C186 1.002 . S
C498 C246 1.170 . S
C500 C206 1.114 . S
C507 C276 1.228 . S
C509 C228 1.016 . S
C516 C248 1.597 . S
C518 C256 1.076 . S
C525 C266 1.374 . S
C527 C268 1.407 . S
C534 C288 1.441 . S
C536 C226 1.021 . S
C543 C296 1.146 . S
C545 C316 1.424 . S
C552 C208 1.524 . S
C554 C308 0.931 . S
C561 C168 1.495 . S
C563 C196 0.924 . S
C570 C166 1.204 . S
C572 C216 1.403 . S
C579 C188 1.537 . S
C581 C286 0.983 . S
C588 C306 1.285 . S
C590 C148 1.301 . S
C597 C128 1.472 . S
C599 C16 1.087 . S
C606 C146 1.374 . S
