# Generated by pormake.
# Topology pcb, (4)-cn, num edge types: 1
# Building blocks:
#     Node 0, Type 0, BuildingBlock: N380, # of connection points: 8
#     Node 1, Type 0, BuildingBlock: N380, # of connection points: 8
#     Node 2, Type 0, BuildingBlock: N380, # of connection points: 8
#     Node 3, Type 0, BuildingBlock: N380, # of connection points: 8
#     Node 4, Type 0, BuildingBlock: N380, # of connection points: 8
#     Node 5, Type 0, BuildingBlock: N380, # of connection points: 8
#     Node 6, Type 0, BuildingBlock: N380, # of connection points: 8
#     Node 7, Type 0, BuildingBlock: N380, # of connection points: 8
#     Node 8, Type 0, BuildingBlock: N380, # of connection points: 8
#     Node 9, Type 0, BuildingBlock: N380, # of connection points: 8
#     Node 10, Type 0, BuildingBlock: N380, # of connection points: 8
#     Node 11, Type 0, BuildingBlock: N380, # of connection points: 8
#     Node 12, Type 0, BuildingBlock: N380, # of connection points: 8
#     Node 13, Type 0, BuildingBlock: N380, # of connection points: 8
#     Node 14, Type 0, BuildingBlock: N380, # of connection points: 8
#     Node 15, Type 0, BuildingBlock: N380, # of connection points: 8
#     Edge 16, Type (0, 0), None
#     Edge 17, Type (0, 0), None
#     Edge 18, Type (0, 0), None
#     Edge 19, Type (0, 0), None
#     Edge 20, Type (0, 0), None
#     Edge 21, Type (0, 0), None
#     Edge 22, Type (0, 0), None
#     Edge 23, Type (0, 0), None
#     Edge 24, Type (0, 0), None
#     Edge 25, Type (0, 0), None
#     Edge 26, Type (0, 0), None
#     Edge 27, Type (0, 0), None
#     Edge 28, Type (0, 0), None
#     Edge 29, Type (0, 0), None
#     Edge 30, Type (0, 0), None
#     Edge 31, Type (0, 0), None
#     Edge 32, Type (0, 0), None
#     Edge 33, Type (0, 0), None
#     Edge 34, Type (0, 0), None
#     Edge 35, Type (0, 0), None
#     Edge 36, Type (0, 0), None
#     Edge 37, Type (0, 0), None
#     Edge 38, Type (0, 0), None
#     Edge 39, Type (0, 0), None
#     Edge 40, Type (0, 0), None
#     Edge 41, Type (0, 0), None
#     Edge 42, Type (0, 0), None
#     Edge 43, Type (0, 0), None
#     Edge 44, Type (0, 0), None
#     Edge 45, Type (0, 0), None
#     Edge 46, Type (0, 0), None
#     Edge 47, Type (0, 0), None
# Relax obj value: 0.059
# Max RMSD: 0.272
# Mean RMSD: 0.267
data_pcb+N380+E0
_symmetry_space_group_name_H-M    P1
_symmetry_Int_Tables_number       1
_symmetry_cell_setting            triclinic
loop_
_symmetry_equiv_pos_as_xyz
'x, y, z'
_cell_length_a     25.187
_cell_length_b     25.589
_cell_length_c     25.767
_cell_angle_alpha  90.730
_cell_angle_beta   90.556
_cell_angle_gamma  90.588
loop_
_atom_site_label
_atom_site_type_symbol
_atom_site_fract_x
_atom_site_fract_y
_atom_site_fract_z
_atom_type_partial_charge
Cd0 Cd 0.77713 0.09082 0.75669 0.00000
Cd1 Cd 0.86246 0.19726 0.88467 0.00000
Cd2 Cd 0.87471 0.17996 0.75682 0.00000
Cd3 Cd 0.76488 0.10811 0.88455 0.00000
C4 C 0.75711 0.20928 0.72150 0.00000
C5 C 0.82016 0.13662 0.98008 0.00000
C6 C 0.73946 0.22999 0.88680 0.00000
C7 C 0.86222 0.10622 0.67118 0.00000
C8 C 0.82811 0.01098 0.83832 0.00000
C9 C 0.91707 0.27324 0.80772 0.00000
C10 C 0.95450 0.12591 0.83611 0.00000
C11 C 0.67972 0.06007 0.82375 0.00000
O12 O 0.73986 0.15905 0.72681 0.00000
O13 O 0.80186 0.22199 0.72936 0.00000
O14 O 0.85302 0.16081 0.95603 0.00000
O15 O 0.78020 0.11161 0.97037 0.00000
O16 O 0.79199 0.24292 0.88965 0.00000
O17 O 0.72430 0.18600 0.88578 0.00000
O18 O 0.82981 0.08155 0.69533 0.00000
O19 O 0.88868 0.14550 0.67776 0.00000
O20 O 0.81580 0.02435 0.78869 0.00000
O21 O 0.81285 0.03507 0.87470 0.00000
O22 O 0.89462 0.26203 0.84737 0.00000
O23 O 0.92191 0.25443 0.76475 0.00000
O24 O 0.93153 0.14983 0.87758 0.00000
O25 O 0.94017 0.13310 0.79289 0.00000
O26 O 0.70173 0.07177 0.78399 0.00000
O27 O 0.68839 0.06460 0.86984 0.00000
O28 O 0.81980 0.14404 0.82068 0.00000
Cd29 Cd 0.89881 0.22304 0.23828 0.00000
Cd30 Cd 0.79431 0.13405 0.11076 0.00000
Cd31 Cd 0.80994 0.12548 0.23908 0.00000
Cd32 Cd 0.88318 0.23161 0.10996 0.00000
C33 C 0.77750 0.24150 0.27144 0.00000
C34 C 0.85680 0.17436 0.01528 0.00000
C35 C 0.75895 0.25438 0.10553 0.00000
C36 C 0.88320 0.14120 0.32541 0.00000
C37 C 0.98220 0.17229 0.15885 0.00000
C38 C 0.71676 0.08091 0.18785 0.00000
C39 C 0.86759 0.04601 0.16226 0.00000
C40 C 0.92949 0.31771 0.16954 0.00000
O41 O 0.82833 0.25922 0.26643 0.00000
O42 O 0.76551 0.19707 0.26438 0.00000
O43 O 0.83238 0.14221 0.03971 0.00000
O44 O 0.88134 0.21435 0.02444 0.00000
O45 O 0.74677 0.20243 0.10364 0.00000
O46 O 0.80336 0.27010 0.10680 0.00000
O47 O 0.90811 0.17291 0.30088 0.00000
O48 O 0.84386 0.11432 0.31887 0.00000
O49 O 0.96755 0.18538 0.20801 0.00000
O50 O 0.95807 0.18596 0.12182 0.00000
O51 O 0.72843 0.10221 0.14788 0.00000
O52 O 0.73523 0.07755 0.23117 0.00000
O53 O 0.84358 0.06715 0.11999 0.00000
O54 O 0.85930 0.06105 0.20507 0.00000
O55 O 0.91731 0.29685 0.20960 0.00000
O56 O 0.92581 0.30796 0.12358 0.00000
O57 O 0.84656 0.17854 0.17452 0.00000
Cd58 Cd 0.86665 0.77528 0.20199 0.00000
Cd59 Cd 0.77612 0.91087 0.11583 0.00000
Cd60 Cd 0.78069 0.78111 0.10297 0.00000
Cd61 Cd 0.86208 0.90505 0.21486 0.00000
C62 C 0.74228 0.74972 0.21609 0.00000
C63 C 0.84567 0.00232 0.16090 0.00000
C64 C 0.73797 0.91738 0.23456 0.00000
C65 C 0.84573 0.68954 0.11718 0.00000
C66 C 0.95817 0.85004 0.15663 0.00000
C67 C 0.69352 0.83898 0.05833 0.00000
C68 C 0.84712 0.85517 0.02836 0.00000
C69 C 0.90063 0.84148 0.29924 0.00000
O70 O 0.79291 0.75129 0.23511 0.00000
O71 O 0.73218 0.75797 0.17197 0.00000
O72 O 0.82008 0.97966 0.12750 0.00000
O73 O 0.86823 0.99117 0.20085 0.00000
O74 O 0.72744 0.92051 0.18277 0.00000
O75 O 0.78170 0.91308 0.25120 0.00000
O76 O 0.87183 0.71226 0.15016 0.00000
O77 O 0.80783 0.69888 0.08977 0.00000
O78 O 0.93889 0.80152 0.16745 0.00000
O79 O 0.93698 0.88866 0.17097 0.00000
O80 O 0.70807 0.87816 0.08123 0.00000
O81 O 0.70823 0.79431 0.05385 0.00000
O82 O 0.82630 0.89898 0.05032 0.00000
O83 O 0.83469 0.81260 0.04150 0.00000
O84 O 0.88556 0.80223 0.27675 0.00000
O85 O 0.90126 0.88794 0.29117 0.00000
O86 O 0.82139 0.84308 0.15891 0.00000
Cd87 Cd 0.22022 0.85998 0.19917 0.00000
Cd88 Cd 0.08650 0.77093 0.10130 0.00000
Cd89 Cd 0.21854 0.78020 0.09574 0.00000
Cd90 Cd 0.08819 0.85071 0.20473 0.00000
C91 C 0.24734 0.73780 0.20833 0.00000
C92 C 0.99138 0.83415 0.14481 0.00000
C93 C 0.07667 0.72728 0.21744 0.00000
C94 C 0.31017 0.84638 0.11817 0.00000
C95 C 0.14459 0.94986 0.15450 0.00000
C96 C 0.16235 0.69486 0.04368 0.00000
C97 C 0.14486 0.84689 0.02067 0.00000
C98 C 0.14955 0.88643 0.29429 0.00000
O99 O 0.24449 0.78658 0.22977 0.00000
O100 O 0.24049 0.72980 0.16336 0.00000
O101 O 0.01576 0.81138 0.11143 0.00000
O102 O 0.00115 0.85470 0.18640 0.00000
O103 O 0.07525 0.71941 0.16508 0.00000
O104 O 0.07994 0.76959 0.23648 0.00000
O105 O 0.28574 0.86968 0.15115 0.00000
O106 O 0.30204 0.81017 0.08841 0.00000
O107 O 0.19373 0.93191 0.16694 0.00000
O108 O 0.10522 0.92707 0.16564 0.00000
O109 O 0.12167 0.70678 0.06513 0.00000
O110 O 0.20762 0.71098 0.04237 0.00000
O111 O 0.09997 0.82392 0.03914 0.00000
O112 O 0.18780 0.83536 0.03546 0.00000
O113 O 0.19028 0.87399 0.27323 0.00000
O114 O 0.10264 0.88598 0.28375 0.00000
O115 O 0.15336 0.81545 0.15023 0.00000
Cd116 Cd 0.12259 0.21934 0.20973 0.00000
Cd117 Cd 0.21141 0.08813 0.11390 0.00000
Cd118 Cd 0.20416 0.21805 0.10849 0.00000
Cd119 Cd 0.12984 0.08942 0.21513 0.00000
C120 C 0.24711 0.24660 0.22233 0.00000
C121 C 0.14541 0.99420 0.15537 0.00000
C122 C 0.25498 0.07865 0.23119 0.00000
C123 C 0.13830 0.30795 0.12939 0.00000
C124 C 0.03030 0.14448 0.16235 0.00000
C125 C 0.29022 0.16313 0.05861 0.00000
C126 C 0.13563 0.14521 0.03137 0.00000
C127 C 0.09407 0.14966 0.30389 0.00000
O128 O 0.19739 0.24357 0.24243 0.00000
O129 O 0.25536 0.23989 0.17757 0.00000
O130 O 0.16912 0.01830 0.12269 0.00000
O131 O 0.12448 0.00372 0.19641 0.00000
O132 O 0.26323 0.07729 0.17906 0.00000
O133 O 0.21195 0.08168 0.24908 0.00000
O134 O 0.11406 0.28379 0.16165 0.00000
O135 O 0.17511 0.30011 0.10060 0.00000
O136 O 0.04926 0.19294 0.17544 0.00000
O137 O 0.05275 0.10583 0.17399 0.00000
O138 O 0.27735 0.12304 0.07960 0.00000
O139 O 0.27459 0.20762 0.05700 0.00000
O140 O 0.15813 0.10114 0.05032 0.00000
O141 O 0.14795 0.18754 0.04660 0.00000
O142 O 0.10748 0.18981 0.28330 0.00000
O143 O 0.09383 0.10349 0.29322 0.00000
O144 O 0.16700 0.15373 0.16181 0.00000
Cd145 Cd 0.77957 0.87535 0.79019 0.00000
Cd146 Cd 0.91373 0.79053 0.88659 0.00000
Cd147 Cd 0.78160 0.79593 0.89185 0.00000
Cd148 Cd 0.91169 0.86995 0.78493 0.00000
C149 C 0.75363 0.75234 0.77820 0.00000
C150 C 0.00841 0.85642 0.84486 0.00000
C151 C 0.92441 0.74683 0.76953 0.00000
C152 C 0.68944 0.85933 0.87053 0.00000
C153 C 0.85418 0.96757 0.83716 0.00000
C154 C 0.83840 0.71240 0.94223 0.00000
C155 C 0.85437 0.86499 0.96868 0.00000
C156 C 0.85034 0.90360 0.69594 0.00000
O157 O 0.75610 0.80115 0.75785 0.00000
O158 O 0.76039 0.74468 0.82301 0.00000
O159 O 0.98413 0.83303 0.87765 0.00000
O160 O 0.99861 0.87655 0.80370 0.00000
O161 O 0.92571 0.73916 0.82171 0.00000
O162 O 0.92082 0.78899 0.75141 0.00000
O163 O 0.71378 0.88325 0.83816 0.00000
O164 O 0.69780 0.82345 0.89951 0.00000
O165 O 0.80525 0.94814 0.82412 0.00000
O166 O 0.89380 0.94591 0.82566 0.00000
O167 O 0.87904 0.72545 0.92120 0.00000
O168 O 0.79297 0.72718 0.94371 0.00000
O169 O 0.89953 0.84330 0.94988 0.00000
O170 O 0.81159 0.85216 0.95347 0.00000
O171 O 0.80965 0.89001 0.71656 0.00000
O172 O 0.89720 0.90456 0.70664 0.00000
O173 O 0.84665 0.83293 0.83839 0.00000
Cd174 Cd 0.14472 0.78623 0.79933 0.00000
Cd175 Cd 0.23498 0.91805 0.89724 0.00000
Cd176 Cd 0.22638 0.78802 0.90207 0.00000
Cd177 Cd 0.15332 0.91626 0.79451 0.00000
C178 C 0.26896 0.76030 0.78892 0.00000
C179 C 0.16992 0.01144 0.85488 0.00000
C180 C 0.27856 0.92838 0.78079 0.00000
C181 C 0.15957 0.69751 0.87965 0.00000
C182 C 0.05324 0.85999 0.84526 0.00000
C183 C 0.31306 0.84367 0.95373 0.00000
C184 C 0.15865 0.85990 0.97818 0.00000
C185 C 0.11686 0.85595 0.70489 0.00000
O186 O 0.21925 0.76288 0.76792 0.00000
O187 O 0.27731 0.76694 0.83386 0.00000
O188 O 0.19341 0.98747 0.88792 0.00000
O189 O 0.14886 0.00185 0.81342 0.00000
O190 O 0.28687 0.92964 0.83308 0.00000
O191 O 0.23549 0.92497 0.76210 0.00000
O192 O 0.13555 0.72153 0.84702 0.00000
O193 O 0.19648 0.70563 0.90914 0.00000
O194 O 0.07168 0.81177 0.83236 0.00000
O195 O 0.07608 0.89891 0.83417 0.00000
O196 O 0.30058 0.88370 0.93263 0.00000
O197 O 0.29696 0.79900 0.95489 0.00000
O198 O 0.18160 0.90427 0.95979 0.00000
O199 O 0.17053 0.81774 0.96302 0.00000
O200 O 0.12987 0.81586 0.72558 0.00000
O201 O 0.11710 0.90208 0.71571 0.00000
O202 O 0.18985 0.85214 0.84829 0.00000
Cd203 Cd 0.22848 0.13697 0.80298 0.00000
Cd204 Cd 0.08673 0.22142 0.88818 0.00000
Cd205 Cd 0.21840 0.21987 0.90330 0.00000
Cd206 Cd 0.09681 0.13852 0.78787 0.00000
C207 C 0.25175 0.26016 0.79147 0.00000
C208 C 0.99646 0.15149 0.84031 0.00000
C209 C 0.08171 0.26063 0.77007 0.00000
C210 C 0.31330 0.15831 0.88964 0.00000
C211 C 0.15378 0.04442 0.84541 0.00000
C212 C 0.15657 0.30354 0.94834 0.00000
C213 C 0.14318 0.15157 0.97538 0.00000
C214 C 0.16411 0.10344 0.70404 0.00000
O215 O 0.25178 0.21061 0.77158 0.00000
O216 O 0.24220 0.26922 0.83559 0.00000
O217 O 0.01816 0.17669 0.87454 0.00000
O218 O 0.00917 0.13018 0.80021 0.00000
O219 O 0.07718 0.27012 0.82194 0.00000
O220 O 0.08749 0.21798 0.75277 0.00000
O221 O 0.29154 0.13259 0.85582 0.00000
O222 O 0.30231 0.19495 0.91750 0.00000
O223 O 0.20283 0.06473 0.83580 0.00000
O224 O 0.11434 0.06456 0.83074 0.00000
O225 O 0.11759 0.28863 0.92450 0.00000
O226 O 0.20220 0.29008 0.95337 0.00000
O227 O 0.09863 0.17133 0.95301 0.00000
O228 O 0.18641 0.16504 0.96323 0.00000
O229 O 0.20314 0.11887 0.72747 0.00000
O230 O 0.11675 0.10157 0.71125 0.00000
O231 O 0.15761 0.17920 0.84558 0.00000
Cd232 Cd 0.72561 0.63096 0.29442 0.00000
Cd233 Cd 0.58928 0.72109 0.38238 0.00000
Cd234 Cd 0.72106 0.71486 0.39441 0.00000
Cd235 Cd 0.59384 0.63719 0.28239 0.00000
C236 C 0.75311 0.75318 0.28152 0.00000
C237 C 0.49540 0.65413 0.33711 0.00000
C238 C 0.58282 0.75968 0.26412 0.00000
C239 C 0.81320 0.64980 0.37894 0.00000
C240 C 0.64866 0.54144 0.33923 0.00000
C241 C 0.66351 0.80104 0.44033 0.00000
C242 C 0.64520 0.64980 0.46873 0.00000
C243 C 0.65768 0.59912 0.19722 0.00000
O244 O 0.75082 0.70352 0.26196 0.00000
O245 O 0.74498 0.76288 0.32580 0.00000
O246 O 0.51883 0.67877 0.37065 0.00000
O247 O 0.50633 0.63211 0.29685 0.00000
O248 O 0.57992 0.76967 0.31603 0.00000
O249 O 0.58659 0.71671 0.24698 0.00000
O250 O 0.78970 0.62465 0.34581 0.00000
O251 O 0.80426 0.68701 0.40681 0.00000
O252 O 0.69814 0.55989 0.32834 0.00000
O253 O 0.60965 0.56290 0.32536 0.00000
O254 O 0.62346 0.78739 0.41751 0.00000
O255 O 0.70870 0.78596 0.44438 0.00000
O256 O 0.60090 0.67101 0.44727 0.00000
O257 O 0.68856 0.66161 0.45547 0.00000
O258 O 0.69780 0.61329 0.21963 0.00000
O259 O 0.61051 0.59902 0.20556 0.00000
O260 O 0.65745 0.67602 0.33840 0.00000
Cd261 Cd 0.27808 0.59506 0.25710 0.00000
Cd262 Cd 0.36675 0.70147 0.38294 0.00000
Cd263 Cd 0.37631 0.68344 0.25492 0.00000
Cd264 Cd 0.26852 0.61310 0.38511 0.00000
C265 C 0.25828 0.71350 0.22171 0.00000
C266 C 0.32591 0.64165 0.47945 0.00000
C267 C 0.24411 0.73518 0.38725 0.00000
C268 C 0.36154 0.60936 0.16988 0.00000
C269 C 0.33005 0.51523 0.33814 0.00000
C270 C 0.42038 0.77664 0.30457 0.00000
C271 C 0.45722 0.62916 0.33297 0.00000
C272 C 0.18183 0.56541 0.32616 0.00000
O273 O 0.24076 0.66343 0.22759 0.00000
O274 O 0.30327 0.72589 0.22865 0.00000
O275 O 0.35846 0.66546 0.45465 0.00000
O276 O 0.28558 0.61691 0.47063 0.00000
O277 O 0.29676 0.74771 0.38903 0.00000
O278 O 0.22859 0.69131 0.38674 0.00000
O279 O 0.32945 0.58506 0.19477 0.00000
O280 O 0.38843 0.64847 0.17577 0.00000
O281 O 0.31687 0.52846 0.28869 0.00000
O282 O 0.31572 0.53963 0.37470 0.00000
O283 O 0.39864 0.76580 0.34470 0.00000
O284 O 0.42421 0.75757 0.26159 0.00000
O285 O 0.43527 0.65347 0.37475 0.00000
O286 O 0.44209 0.63624 0.28997 0.00000
O287 O 0.20312 0.57674 0.28593 0.00000
O288 O 0.19145 0.57011 0.37207 0.00000
O289 O 0.32242 0.64827 0.32001 0.00000
Cd290 Cd 0.39879 0.28805 0.27488 0.00000
Cd291 Cd 0.29639 0.37821 0.39978 0.00000
Cd292 Cd 0.31078 0.38452 0.27143 0.00000
Cd293 Cd 0.38440 0.28174 0.40322 0.00000
C294 C 0.27698 0.26755 0.24093 0.00000
C295 C 0.35949 0.34046 0.49660 0.00000
C296 C 0.26000 0.25761 0.40692 0.00000
C297 C 0.38303 0.36802 0.18607 0.00000
C298 C 0.48346 0.34127 0.35414 0.00000
C299 C 0.21852 0.42896 0.32096 0.00000
C300 C 0.36993 0.46610 0.34731 0.00000
C301 C 0.42933 0.19508 0.34567 0.00000
O302 O 0.32770 0.25053 0.24674 0.00000
O303 O 0.26545 0.31196 0.24704 0.00000
O304 O 0.33511 0.37185 0.47134 0.00000
O305 O 0.38359 0.30060 0.48841 0.00000
O306 O 0.24830 0.30944 0.40772 0.00000
O307 O 0.30425 0.24239 0.40636 0.00000
O308 O 0.40791 0.33708 0.21141 0.00000
O309 O 0.34399 0.39456 0.19173 0.00000
O310 O 0.46819 0.32707 0.30508 0.00000
O311 O 0.45958 0.32802 0.39120 0.00000
O312 O 0.23041 0.40857 0.36144 0.00000
O313 O 0.23658 0.43171 0.27774 0.00000
O314 O 0.34617 0.44549 0.38976 0.00000
O315 O 0.36107 0.45015 0.30470 0.00000
O316 O 0.41693 0.21503 0.30510 0.00000
O317 O 0.42621 0.20566 0.39142 0.00000
O318 O 0.34759 0.33313 0.33732 0.00000
Cd319 Cd 0.62641 0.71930 0.70707 0.00000
Cd320 Cd 0.71377 0.58701 0.61137 0.00000
Cd321 Cd 0.70749 0.71697 0.60547 0.00000
Cd322 Cd 0.63269 0.58935 0.71297 0.00000
C323 C 0.75118 0.74567 0.71901 0.00000
C324 C 0.64725 0.49376 0.65352 0.00000
C325 C 0.75780 0.57770 0.72852 0.00000
C326 C 0.64243 0.80745 0.62629 0.00000
C327 C 0.53334 0.64493 0.66040 0.00000
C328 C 0.79289 0.66118 0.55542 0.00000
C329 C 0.63805 0.64432 0.52894 0.00000
C330 C 0.59779 0.65023 0.80165 0.00000
O331 O 0.70154 0.74310 0.73934 0.00000
O332 O 0.75917 0.73871 0.67423 0.00000
O333 O 0.67099 0.51754 0.62064 0.00000
O334 O 0.62658 0.50361 0.69463 0.00000
O335 O 0.76580 0.57606 0.67635 0.00000
O336 O 0.71488 0.58113 0.74659 0.00000
O337 O 0.61815 0.78361 0.65877 0.00000
O338 O 0.67904 0.79921 0.59737 0.00000
O339 O 0.55273 0.69331 0.67321 0.00000
O340 O 0.55555 0.60616 0.67211 0.00000
O341 O 0.77980 0.62128 0.57664 0.00000
O342 O 0.77759 0.70579 0.55370 0.00000
O343 O 0.66030 0.60015 0.54798 0.00000
O344 O 0.65077 0.68662 0.54395 0.00000
O345 O 0.61142 0.69019 0.78084 0.00000
O346 O 0.59715 0.60402 0.79117 0.00000
O347 O 0.67009 0.65316 0.65922 0.00000
Cd348 Cd 0.41030 0.72731 0.73805 0.00000
Cd349 Cd 0.30143 0.63771 0.61450 0.00000
Cd350 Cd 0.31998 0.63125 0.74263 0.00000
Cd351 Cd 0.39176 0.73377 0.60993 0.00000
C352 C 0.29017 0.74835 0.77361 0.00000
C353 C 0.36222 0.67523 0.51688 0.00000
C354 C 0.26788 0.75847 0.60788 0.00000
C355 C 0.39549 0.64737 0.82702 0.00000
C356 C 0.49092 0.67377 0.65767 0.00000
C357 C 0.22495 0.58727 0.69431 0.00000
C358 C 0.37449 0.54945 0.66595 0.00000
C359 C 0.44081 0.82019 0.66690 0.00000
O360 O 0.34112 0.76514 0.76714 0.00000
O361 O 0.27732 0.70400 0.76763 0.00000
O362 O 0.33791 0.64394 0.54244 0.00000
O363 O 0.38760 0.71497 0.52477 0.00000
O364 O 0.25484 0.70670 0.60722 0.00000
O365 O 0.31253 0.77348 0.60787 0.00000
O366 O 0.42030 0.67821 0.80136 0.00000
O367 O 0.35560 0.62101 0.82186 0.00000
O368 O 0.47767 0.68800 0.70692 0.00000
O369 O 0.46615 0.68715 0.62093 0.00000
O370 O 0.23599 0.60763 0.65369 0.00000
O371 O 0.24438 0.58440 0.73728 0.00000
O372 O 0.34983 0.57020 0.62383 0.00000
O373 O 0.36747 0.56542 0.70867 0.00000
O374 O 0.42927 0.80027 0.70762 0.00000
O375 O 0.43588 0.80965 0.62120 0.00000
O376 O 0.35586 0.68251 0.67628 0.00000
Cd377 Cd 0.36980 0.27867 0.72110 0.00000
Cd378 Cd 0.28087 0.41535 0.63507 0.00000
Cd379 Cd 0.28330 0.28547 0.62261 0.00000
Cd380 Cd 0.36737 0.40855 0.73357 0.00000
C381 C 0.24518 0.25508 0.73610 0.00000
C382 C 0.35214 0.50588 0.67939 0.00000
C383 C 0.24363 0.42287 0.75404 0.00000
C384 C 0.34697 0.19295 0.63671 0.00000
C385 C 0.46216 0.35186 0.67489 0.00000
C386 C 0.19678 0.34453 0.57835 0.00000
C387 C 0.35038 0.35825 0.54732 0.00000
C388 C 0.40547 0.34468 0.81791 0.00000
O389 O 0.29593 0.25593 0.75479 0.00000
O390 O 0.23491 0.26333 0.69201 0.00000
O391 O 0.32598 0.48350 0.64622 0.00000
O392 O 0.37478 0.49453 0.71923 0.00000
O393 O 0.23281 0.42598 0.70230 0.00000
O394 O 0.28739 0.41795 0.77041 0.00000
O395 O 0.37364 0.21539 0.66945 0.00000
O396 O 0.30904 0.20279 0.60951 0.00000
O397 O 0.44220 0.30368 0.68599 0.00000
O398 O 0.44169 0.39086 0.68924 0.00000
O399 O 0.21210 0.38357 0.60103 0.00000
O400 O 0.21075 0.29963 0.57392 0.00000
O401 O 0.33041 0.40246 0.56927 0.00000
O402 O 0.33736 0.31592 0.56069 0.00000
O403 O 0.38963 0.30559 0.79566 0.00000
O404 O 0.40678 0.39111 0.80969 0.00000
O405 O 0.32534 0.34701 0.67809 0.00000
Cd406 Cd 0.72303 0.35786 0.69458 0.00000
Cd407 Cd 0.58239 0.27028 0.60516 0.00000
Cd408 Cd 0.71397 0.27674 0.59242 0.00000
Cd409 Cd 0.59145 0.35141 0.70732 0.00000
C410 C 0.74817 0.23527 0.70396 0.00000
C411 C 0.49119 0.33605 0.65285 0.00000
C412 C 0.57822 0.22842 0.72232 0.00000
C413 C 0.80795 0.34130 0.60903 0.00000
C414 C 0.64686 0.44868 0.65276 0.00000
C415 C 0.65331 0.19188 0.54458 0.00000
C416 C 0.63758 0.34392 0.52045 0.00000
C417 C 0.65839 0.38706 0.79303 0.00000
O418 O 0.74750 0.28439 0.72487 0.00000
O419 O 0.73866 0.22681 0.65951 0.00000
O420 O 0.51319 0.31233 0.61850 0.00000
O421 O 0.50367 0.35695 0.69359 0.00000
O422 O 0.57372 0.21987 0.67019 0.00000
O423 O 0.58339 0.27091 0.74059 0.00000
O424 O 0.78589 0.36555 0.64298 0.00000
O425 O 0.79745 0.30487 0.58023 0.00000
O426 O 0.69623 0.42989 0.66281 0.00000
O427 O 0.60776 0.42687 0.66630 0.00000
O428 O 0.61417 0.20493 0.56802 0.00000
O429 O 0.69872 0.20704 0.54064 0.00000
O430 O 0.59339 0.32214 0.54161 0.00000
O431 O 0.68103 0.33171 0.53308 0.00000
O432 O 0.69759 0.37349 0.76998 0.00000
O433 O 0.61100 0.38744 0.78502 0.00000
O434 O 0.65271 0.31407 0.64987 0.00000
Cd435 Cd 0.62030 0.28076 0.29428 0.00000
Cd436 Cd 0.71236 0.41265 0.39049 0.00000
Cd437 Cd 0.70266 0.28274 0.39649 0.00000
Cd438 Cd 0.63000 0.41066 0.28829 0.00000
C439 C 0.74421 0.25366 0.28329 0.00000
C440 C 0.64784 0.50622 0.34774 0.00000
C441 C 0.75523 0.42157 0.27364 0.00000
C442 C 0.63491 0.19262 0.37528 0.00000
C443 C 0.52979 0.35571 0.34018 0.00000
C444 C 0.79016 0.33809 0.44711 0.00000
C445 C 0.63610 0.35587 0.47243 0.00000
C446 C 0.59240 0.34988 0.19941 0.00000
O447 O 0.69439 0.25649 0.26259 0.00000
O448 O 0.75293 0.26063 0.32812 0.00000
O449 O 0.67134 0.48234 0.38083 0.00000
O450 O 0.62642 0.49644 0.30649 0.00000
O451 O 0.76390 0.42322 0.32588 0.00000
O452 O 0.71200 0.41836 0.25526 0.00000
O453 O 0.61089 0.21656 0.34260 0.00000
O454 O 0.67209 0.20069 0.40446 0.00000
O455 O 0.54773 0.30722 0.32757 0.00000
O456 O 0.55290 0.39434 0.32861 0.00000
O457 O 0.77789 0.37804 0.42575 0.00000
O458 O 0.77369 0.29358 0.44876 0.00000
O459 O 0.65930 0.39988 0.45351 0.00000
O460 O 0.64750 0.31349 0.45756 0.00000
O461 O 0.60520 0.30987 0.22037 0.00000
O462 O 0.59312 0.39610 0.20983 0.00000
O463 O 0.66633 0.34670 0.34239 0.00000
loop_
_geom_bond_atom_site_label_1
_geom_bond_atom_site_label_2
_geom_bond_distance
_geom_bond_site_symmetry_2
_ccdc_geom_bond_type
Cd0 O12 2.139 . S
Cd0 O18 2.087 . S
Cd0 O20 2.139 . S
Cd0 O26 2.087 . S
Cd0 O28 2.368 . S
Cd1 O14 2.087 . S
Cd1 O16 2.139 . S
Cd1 O22 2.087 . S
Cd1 O24 2.139 . S
Cd1 O28 2.368 . S
Cd2 O13 2.249 . S
Cd2 O19 2.242 . S
Cd2 O23 2.242 . S
Cd2 O25 2.249 . S
Cd2 O28 2.350 . S
Cd3 O15 2.242 . S
Cd3 O17 2.249 . S
Cd3 O21 2.249 . S
Cd3 O27 2.242 . S
Cd3 O28 2.350 . S
C4 O12 1.362 . A
C4 O13 1.185 . A
C5 O14 1.209 . A
C5 O15 1.210 . A
C6 O16 1.362 . A
C6 O17 1.185 . A
C7 O18 1.209 . A
C7 O19 1.210 . A
C8 O20 1.361 . A
C8 O21 1.185 . A
C9 O22 1.209 . A
C9 O23 1.210 . A
C10 O24 1.361 . A
C10 O25 1.185 . A
C11 O26 1.209 . A
C11 O27 1.210 . A
Cd29 O41 2.139 . S
Cd29 O47 2.087 . S
Cd29 O49 2.139 . S
Cd29 O55 2.087 . S
Cd29 O57 2.368 . S
Cd30 O43 2.087 . S
Cd30 O45 2.139 . S
Cd30 O51 2.087 . S
Cd30 O53 2.139 . S
Cd30 O57 2.368 . S
Cd31 O42 2.249 . S
Cd31 O48 2.242 . S
Cd31 O52 2.242 . S
Cd31 O54 2.249 . S
Cd31 O57 2.350 . S
Cd32 O44 2.242 . S
Cd32 O46 2.249 . S
Cd32 O50 2.249 . S
Cd32 O56 2.242 . S
Cd32 O57 2.350 . S
C33 O41 1.362 . A
C33 O42 1.185 . A
C34 O43 1.209 . A
C34 O44 1.210 . A
C35 O45 1.362 . A
C35 O46 1.185 . A
C36 O47 1.209 . A
C36 O48 1.210 . A
C37 O49 1.361 . A
C37 O50 1.185 . A
C38 O51 1.209 . A
C38 O52 1.210 . A
C39 O53 1.361 . A
C39 O54 1.185 . A
C40 O55 1.209 . A
C40 O56 1.210 . A
Cd58 O70 2.139 . S
Cd58 O76 2.087 . S
Cd58 O78 2.139 . S
Cd58 O84 2.087 . S
Cd58 O86 2.368 . S
Cd59 O72 2.087 . S
Cd59 O74 2.139 . S
Cd59 O80 2.087 . S
Cd59 O82 2.139 . S
Cd59 O86 2.368 . S
Cd60 O71 2.249 . S
Cd60 O77 2.242 . S
Cd60 O81 2.242 . S
Cd60 O83 2.249 . S
Cd60 O86 2.350 . S
Cd61 O73 2.242 . S
Cd61 O75 2.249 . S
Cd61 O79 2.249 . S
Cd61 O85 2.242 . S
Cd61 O86 2.350 . S
C62 O70 1.362 . A
C62 O71 1.185 . A
C63 O72 1.209 1_545 A
C63 O73 1.210 1_545 A
C64 O74 1.362 . A
C64 O75 1.185 . A
C65 O76 1.209 . A
C65 O77 1.210 . A
C66 O78 1.361 . A
C66 O79 1.185 . A
C67 O80 1.209 . A
C67 O81 1.210 . A
C68 O82 1.361 . A
C68 O83 1.185 . A
C69 O84 1.209 . A
C69 O85 1.210 . A
Cd87 O99 2.139 . S
Cd87 O105 2.087 . S
Cd87 O107 2.139 . S
Cd87 O113 2.087 . S
Cd87 O115 2.368 . S
Cd88 O101 2.087 . S
Cd88 O103 2.139 . S
Cd88 O109 2.087 . S
Cd88 O111 2.139 . S
Cd88 O115 2.368 . S
Cd89 O100 2.249 . S
Cd89 O106 2.242 . S
Cd89 O110 2.242 . S
Cd89 O112 2.249 . S
Cd89 O115 2.350 . S
Cd90 O102 2.242 . S
Cd90 O104 2.249 . S
Cd90 O108 2.249 . S
Cd90 O114 2.242 . S
Cd90 O115 2.350 . S
C91 O99 1.362 . A
C91 O100 1.185 . A
C92 O101 1.209 1_655 A
C92 O102 1.210 1_655 A
C93 O103 1.362 . A
C93 O104 1.185 . A
C94 O105 1.209 . A
C94 O106 1.210 . A
C95 O107 1.361 . A
C95 O108 1.185 . A
C96 O109 1.209 . A
C96 O110 1.210 . A
C97 O111 1.361 . A
C97 O112 1.185 . A
C98 O113 1.209 . A
C98 O114 1.210 . A
Cd116 O128 2.139 . S
Cd116 O134 2.087 . S
Cd116 O136 2.139 . S
Cd116 O142 2.087 . S
Cd116 O144 2.368 . S
Cd117 O130 2.087 . S
Cd117 O132 2.139 . S
Cd117 O138 2.087 . S
Cd117 O140 2.139 . S
Cd117 O144 2.368 . S
Cd118 O129 2.249 . S
Cd118 O135 2.242 . S
Cd118 O139 2.242 . S
Cd118 O141 2.249 . S
Cd118 O144 2.350 . S
Cd119 O131 2.242 . S
Cd119 O133 2.249 . S
Cd119 O137 2.249 . S
Cd119 O143 2.242 . S
Cd119 O144 2.350 . S
C120 O128 1.362 . A
C120 O129 1.185 . A
C121 O130 1.209 1_565 A
C121 O131 1.210 1_565 A
C122 O132 1.362 . A
C122 O133 1.185 . A
C123 O134 1.209 . A
C123 O135 1.210 . A
C124 O136 1.361 . A
C124 O137 1.185 . A
C125 O138 1.209 . A
C125 O139 1.210 . A
C126 O140 1.361 . A
C126 O141 1.185 . A
C127 O142 1.209 . A
C127 O143 1.210 . A
Cd145 O157 2.139 . S
Cd145 O163 2.087 . S
Cd145 O165 2.139 . S
Cd145 O171 2.087 . S
Cd145 O173 2.368 . S
Cd146 O159 2.087 . S
Cd146 O161 2.139 . S
Cd146 O167 2.087 . S
Cd146 O169 2.139 . S
Cd146 O173 2.368 . S
Cd147 O158 2.249 . S
Cd147 O164 2.242 . S
Cd147 O168 2.242 . S
Cd147 O170 2.249 . S
Cd147 O173 2.350 . S
Cd148 O160 2.242 . S
Cd148 O162 2.249 . S
Cd148 O166 2.249 . S
Cd148 O172 2.242 . S
Cd148 O173 2.350 . S
C149 O157 1.362 . A
C149 O158 1.185 . A
C150 O159 1.209 1_455 A
C150 O160 1.210 1_455 A
C151 O161 1.362 . A
C151 O162 1.185 . A
C152 O163 1.209 . A
C152 O164 1.210 . A
C153 O165 1.361 . A
C153 O166 1.185 . A
C154 O167 1.209 . A
C154 O168 1.210 . A
C155 O169 1.361 . A
C155 O170 1.185 . A
C156 O171 1.209 . A
C156 O172 1.210 . A
Cd174 O186 2.139 . S
Cd174 O192 2.087 . S
Cd174 O194 2.139 . S
Cd174 O200 2.087 . S
Cd174 O202 2.368 . S
Cd175 O188 2.087 . S
Cd175 O190 2.139 . S
Cd175 O196 2.087 . S
Cd175 O198 2.139 . S
Cd175 O202 2.368 . S
Cd176 O187 2.249 . S
Cd176 O193 2.242 . S
Cd176 O197 2.242 . S
Cd176 O199 2.249 . S
Cd176 O202 2.350 . S
Cd177 O189 2.242 1_565 S
Cd177 O191 2.249 . S
Cd177 O195 2.249 . S
Cd177 O201 2.242 . S
Cd177 O202 2.350 . S
C178 O186 1.362 . A
C178 O187 1.185 . A
C179 O188 1.209 1_545 A
C179 O189 1.210 . A
C180 O190 1.362 . A
C180 O191 1.185 . A
C181 O192 1.209 . A
C181 O193 1.210 . A
C182 O194 1.361 . A
C182 O195 1.185 . A
C183 O196 1.209 . A
C183 O197 1.210 . A
C184 O198 1.361 . A
C184 O199 1.185 . A
C185 O200 1.209 . A
C185 O201 1.210 . A
Cd203 O215 2.139 . S
Cd203 O221 2.087 . S
Cd203 O223 2.139 . S
Cd203 O229 2.087 . S
Cd203 O231 2.368 . S
Cd204 O217 2.087 . S
Cd204 O219 2.139 . S
Cd204 O225 2.087 . S
Cd204 O227 2.139 . S
Cd204 O231 2.368 . S
Cd205 O216 2.249 . S
Cd205 O222 2.242 . S
Cd205 O226 2.242 . S
Cd205 O228 2.249 . S
Cd205 O231 2.350 . S
Cd206 O218 2.242 . S
Cd206 O220 2.249 . S
Cd206 O224 2.249 . S
Cd206 O230 2.242 . S
Cd206 O231 2.350 . S
C207 O215 1.362 . A
C207 O216 1.185 . A
C208 O217 1.209 1_655 A
C208 O218 1.210 1_655 A
C209 O219 1.362 . A
C209 O220 1.185 . A
C210 O221 1.209 . A
C210 O222 1.210 . A
C211 O223 1.361 . A
C211 O224 1.185 . A
C212 O225 1.209 . A
C212 O226 1.210 . A
C213 O227 1.361 . A
C213 O228 1.185 . A
C214 O229 1.209 . A
C214 O230 1.210 . A
Cd232 O244 2.139 . S
Cd232 O250 2.087 . S
Cd232 O252 2.139 . S
Cd232 O258 2.087 . S
Cd232 O260 2.368 . S
Cd233 O246 2.087 . S
Cd233 O248 2.139 . S
Cd233 O254 2.087 . S
Cd233 O256 2.139 . S
Cd233 O260 2.368 . S
Cd234 O245 2.249 . S
Cd234 O251 2.242 . S
Cd234 O255 2.242 . S
Cd234 O257 2.249 . S
Cd234 O260 2.350 . S
Cd235 O247 2.242 . S
Cd235 O249 2.249 . S
Cd235 O253 2.249 . S
Cd235 O259 2.242 . S
Cd235 O260 2.350 . S
C236 O244 1.362 . A
C236 O245 1.185 . A
C237 O246 1.209 . A
C237 O247 1.210 . A
C238 O248 1.362 . A
C238 O249 1.185 . A
C239 O250 1.209 . A
C239 O251 1.210 . A
C240 O252 1.361 . A
C240 O253 1.185 . A
C241 O254 1.209 . A
C241 O255 1.210 . A
C242 O256 1.361 . A
C242 O257 1.185 . A
C243 O258 1.209 . A
C243 O259 1.210 . A
Cd261 O273 2.139 . S
Cd261 O279 2.087 . S
Cd261 O281 2.139 . S
Cd261 O287 2.087 . S
Cd261 O289 2.368 . S
Cd262 O275 2.087 . S
Cd262 O277 2.139 . S
Cd262 O283 2.087 . S
Cd262 O285 2.139 . S
Cd262 O289 2.368 . S
Cd263 O274 2.249 . S
Cd263 O280 2.242 . S
Cd263 O284 2.242 . S
Cd263 O286 2.249 . S
Cd263 O289 2.350 . S
Cd264 O276 2.242 . S
Cd264 O278 2.249 . S
Cd264 O282 2.249 . S
Cd264 O288 2.242 . S
Cd264 O289 2.350 . S
C265 O273 1.362 . A
C265 O274 1.185 . A
C266 O275 1.209 . A
C266 O276 1.210 . A
C267 O277 1.362 . A
C267 O278 1.185 . A
C268 O279 1.209 . A
C268 O280 1.210 . A
C269 O281 1.361 . A
C269 O282 1.185 . A
C270 O283 1.209 . A
C270 O284 1.210 . A
C271 O285 1.361 . A
C271 O286 1.185 . A
C272 O287 1.209 . A
C272 O288 1.210 . A
Cd290 O302 2.139 . S
Cd290 O308 2.087 . S
Cd290 O310 2.139 . S
Cd290 O316 2.087 . S
Cd290 O318 2.368 . S
Cd291 O304 2.087 . S
Cd291 O306 2.139 . S
Cd291 O312 2.087 . S
Cd291 O314 2.139 . S
Cd291 O318 2.368 . S
Cd292 O303 2.249 . S
Cd292 O309 2.242 . S
Cd292 O313 2.242 . S
Cd292 O315 2.249 . S
Cd292 O318 2.350 . S
Cd293 O305 2.242 . S
Cd293 O307 2.249 . S
Cd293 O311 2.249 . S
Cd293 O317 2.242 . S
Cd293 O318 2.350 . S
C294 O302 1.362 . A
C294 O303 1.185 . A
C295 O304 1.209 . A
C295 O305 1.210 . A
C296 O306 1.362 . A
C296 O307 1.185 . A
C297 O308 1.209 . A
C297 O309 1.210 . A
C298 O310 1.361 . A
C298 O311 1.185 . A
C299 O312 1.209 . A
C299 O313 1.210 . A
C300 O314 1.361 . A
C300 O315 1.185 . A
C301 O316 1.209 . A
C301 O317 1.210 . A
Cd319 O331 2.139 . S
Cd319 O337 2.087 . S
Cd319 O339 2.139 . S
Cd319 O345 2.087 . S
Cd319 O347 2.368 . S
Cd320 O333 2.087 . S
Cd320 O335 2.139 . S
Cd320 O341 2.087 . S
Cd320 O343 2.139 . S
Cd320 O347 2.368 . S
Cd321 O332 2.249 . S
Cd321 O338 2.242 . S
Cd321 O342 2.242 . S
Cd321 O344 2.249 . S
Cd321 O347 2.350 . S
Cd322 O334 2.242 . S
Cd322 O336 2.249 . S
Cd322 O340 2.249 . S
Cd322 O346 2.242 . S
Cd322 O347 2.350 . S
C323 O331 1.362 . A
C323 O332 1.185 . A
C324 O333 1.209 . A
C324 O334 1.210 . A
C325 O335 1.362 . A
C325 O336 1.185 . A
C326 O337 1.209 . A
C326 O338 1.210 . A
C327 O339 1.361 . A
C327 O340 1.185 . A
C328 O341 1.209 . A
C328 O342 1.210 . A
C329 O343 1.361 . A
C329 O344 1.185 . A
C330 O345 1.209 . A
C330 O346 1.210 . A
Cd348 O360 2.139 . S
Cd348 O366 2.087 . S
Cd348 O368 2.139 . S
Cd348 O374 2.087 . S
Cd348 O376 2.368 . S
Cd349 O362 2.087 . S
Cd349 O364 2.139 . S
Cd349 O370 2.087 . S
Cd349 O372 2.139 . S
Cd349 O376 2.368 . S
Cd350 O361 2.249 . S
Cd350 O367 2.242 . S
Cd350 O371 2.242 . S
Cd350 O373 2.249 . S
Cd350 O376 2.350 . S
Cd351 O363 2.242 . S
Cd351 O365 2.249 . S
Cd351 O369 2.249 . S
Cd351 O375 2.242 . S
Cd351 O376 2.350 . S
C352 O360 1.362 . A
C352 O361 1.185 . A
C353 O362 1.209 . A
C353 O363 1.210 . A
C354 O364 1.362 . A
C354 O365 1.185 . A
C355 O366 1.209 . A
C355 O367 1.210 . A
C356 O368 1.361 . A
C356 O369 1.185 . A
C357 O370 1.209 . A
C357 O371 1.210 . A
C358 O372 1.361 . A
C358 O373 1.185 . A
C359 O374 1.209 . A
C359 O375 1.210 . A
Cd377 O389 2.139 . S
Cd377 O395 2.087 . S
Cd377 O397 2.139 . S
Cd377 O403 2.087 . S
Cd377 O405 2.368 . S
Cd378 O391 2.087 . S
Cd378 O393 2.139 . S
Cd378 O399 2.087 . S
Cd378 O401 2.139 . S
Cd378 O405 2.368 . S
Cd379 O390 2.249 . S
Cd379 O396 2.242 . S
Cd379 O400 2.242 . S
Cd379 O402 2.249 . S
Cd379 O405 2.350 . S
Cd380 O392 2.242 . S
Cd380 O394 2.249 . S
Cd380 O398 2.249 . S
Cd380 O404 2.242 . S
Cd380 O405 2.350 . S
C381 O389 1.362 . A
C381 O390 1.185 . A
C382 O391 1.209 . A
C382 O392 1.210 . A
C383 O393 1.362 . A
C383 O394 1.185 . A
C384 O395 1.209 . A
C384 O396 1.210 . A
C385 O397 1.361 . A
C385 O398 1.185 . A
C386 O399 1.209 . A
C386 O400 1.210 . A
C387 O401 1.361 . A
C387 O402 1.185 . A
C388 O403 1.209 . A
C388 O404 1.210 . A
Cd406 O418 2.139 . S
Cd406 O424 2.087 . S
Cd406 O426 2.139 . S
Cd406 O432 2.087 . S
Cd406 O434 2.368 . S
Cd407 O420 2.087 . S
Cd407 O422 2.139 . S
Cd407 O428 2.087 . S
Cd407 O430 2.139 . S
Cd407 O434 2.368 . S
Cd408 O419 2.249 . S
Cd408 O425 2.242 . S
Cd408 O429 2.242 . S
Cd408 O431 2.249 . S
Cd408 O434 2.350 . S
Cd409 O421 2.242 . S
Cd409 O423 2.249 . S
Cd409 O427 2.249 . S
Cd409 O433 2.242 . S
Cd409 O434 2.350 . S
C410 O418 1.362 . A
C410 O419 1.185 . A
C411 O420 1.209 . A
C411 O421 1.210 . A
C412 O422 1.362 . A
C412 O423 1.185 . A
C413 O424 1.209 . A
C413 O425 1.210 . A
C414 O426 1.361 . A
C414 O427 1.185 . A
C415 O428 1.209 . A
C415 O429 1.210 . A
C416 O430 1.361 . A
C416 O431 1.185 . A
C417 O432 1.209 . A
C417 O433 1.210 . A
Cd435 O447 2.139 . S
Cd435 O453 2.087 . S
Cd435 O455 2.139 . S
Cd435 O461 2.087 . S
Cd435 O463 2.368 . S
Cd436 O449 2.087 . S
Cd436 O451 2.139 . S
Cd436 O457 2.087 . S
Cd436 O459 2.139 . S
Cd436 O463 2.368 . S
Cd437 O448 2.249 . S
Cd437 O454 2.242 . S
Cd437 O458 2.242 . S
Cd437 O460 2.249 . S
Cd437 O463 2.350 . S
Cd438 O450 2.242 . S
Cd438 O452 2.249 . S
Cd438 O456 2.249 . S
Cd438 O462 2.242 . S
Cd438 O463 2.350 . S
C439 O447 1.362 . A
C439 O448 1.185 . A
C440 O449 1.209 . A
C440 O450 1.210 . A
C441 O451 1.362 . A
C441 O452 1.185 . A
C442 O453 1.209 . A
C442 O454 1.210 . A
C443 O455 1.361 . A
C443 O456 1.185 . A
C444 O457 1.209 . A
C444 O458 1.210 . A
C445 O459 1.361 . A
C445 O460 1.185 . A
C446 O461 1.209 . A
C446 O462 1.210 . A
C410 C4 0.840 . S
C439 C33 0.949 . S
C62 C236 1.706 . S
C91 C265 0.767 . S
C294 C120 1.030 . S
C149 C323 1.533 . S
C352 C178 0.734 . S
C207 C381 1.439 . S
C8 C153 1.296 1_545 S
C124 C37 1.414 1_455 S
C63 C39 1.242 . S
C66 C92 0.983 . S
C121 C95 1.135 . S
C150 C182 1.132 . S
C184 C97 1.202 1_556 S
C34 C5 1.597 1_554 S
C155 C68 1.573 1_556 S
C213 C126 1.468 1_556 S
C329 C242 1.572 . S
C266 C353 1.565 . S
C295 C387 1.400 . S
C327 C356 1.307 . S
C358 C382 1.296 . S
C385 C411 1.014 . S
C324 C414 1.153 . S
C443 C298 1.277 . S
C440 C240 0.930 . S
C271 C237 1.152 . S
C300 C269 1.635 . S
C416 C445 1.279 . S
C211 C179 0.973 . S
C10 C208 1.240 . S
