# Generated by pormake.
# Topology pcb, (4)-cn, num edge types: 1
# Building blocks:
#     Node 0, Type 0, BuildingBlock: N651, # of connection points: 5
#     Node 1, Type 0, BuildingBlock: N651, # of connection points: 5
#     Node 2, Type 0, BuildingBlock: N651, # of connection points: 5
#     Node 3, Type 0, BuildingBlock: N651, # of connection points: 5
#     Node 4, Type 0, BuildingBlock: N651, # of connection points: 5
#     Node 5, Type 0, BuildingBlock: N651, # of connection points: 5
#     Node 6, Type 0, BuildingBlock: N651, # of connection points: 5
#     Node 7, Type 0, BuildingBlock: N651, # of connection points: 5
#     Node 8, Type 0, BuildingBlock: N651, # of connection points: 5
#     Node 9, Type 0, BuildingBlock: N651, # of connection points: 5
#     Node 10, Type 0, BuildingBlock: N651, # of connection points: 5
#     Node 11, Type 0, BuildingBlock: N651, # of connection points: 5
#     Node 12, Type 0, BuildingBlock: N651, # of connection points: 5
#     Node 13, Type 0, BuildingBlock: N651, # of connection points: 5
#     Node 14, Type 0, BuildingBlock: N651, # of connection points: 5
#     Node 15, Type 0, BuildingBlock: N651, # of connection points: 5
#     Edge 16, Type (0, 0), BuildingBlock: E158, # of connection points: 2
#     Edge 17, Type (0, 0), BuildingBlock: E158, # of connection points: 2
#     Edge 18, Type (0, 0), BuildingBlock: E158, # of connection points: 2
#     Edge 19, Type (0, 0), BuildingBlock: E158, # of connection points: 2
#     Edge 20, Type (0, 0), BuildingBlock: E158, # of connection points: 2
#     Edge 21, Type (0, 0), BuildingBlock: E158, # of connection points: 2
#     Edge 22, Type (0, 0), BuildingBlock: E158, # of connection points: 2
#     Edge 23, Type (0, 0), BuildingBlock: E158, # of connection points: 2
#     Edge 24, Type (0, 0), BuildingBlock: E158, # of connection points: 2
#     Edge 25, Type (0, 0), BuildingBlock: E158, # of connection points: 2
#     Edge 26, Type (0, 0), BuildingBlock: E158, # of connection points: 2
#     Edge 27, Type (0, 0), BuildingBlock: E158, # of connection points: 2
#     Edge 28, Type (0, 0), BuildingBlock: E158, # of connection points: 2
#     Edge 29, Type (0, 0), BuildingBlock: E158, # of connection points: 2
#     Edge 30, Type (0, 0), BuildingBlock: E158, # of connection points: 2
#     Edge 31, Type (0, 0), BuildingBlock: E158, # of connection points: 2
#     Edge 32, Type (0, 0), BuildingBlock: E158, # of connection points: 2
#     Edge 33, Type (0, 0), BuildingBlock: E158, # of connection points: 2
#     Edge 34, Type (0, 0), BuildingBlock: E158, # of connection points: 2
#     Edge 35, Type (0, 0), BuildingBlock: E158, # of connection points: 2
#     Edge 36, Type (0, 0), BuildingBlock: E158, # of connection points: 2
#     Edge 37, Type (0, 0), BuildingBlock: E158, # of connection points: 2
#     Edge 38, Type (0, 0), BuildingBlock: E158, # of connection points: 2
#     Edge 39, Type (0, 0), BuildingBlock: E158, # of connection points: 2
#     Edge 40, Type (0, 0), BuildingBlock: E158, # of connection points: 2
#     Edge 41, Type (0, 0), BuildingBlock: E158, # of connection points: 2
#     Edge 42, Type (0, 0), BuildingBlock: E158, # of connection points: 2
#     Edge 43, Type (0, 0), BuildingBlock: E158, # of connection points: 2
#     Edge 44, Type (0, 0), BuildingBlock: E158, # of connection points: 2
#     Edge 45, Type (0, 0), BuildingBlock: E158, # of connection points: 2
#     Edge 46, Type (0, 0), BuildingBlock: E158, # of connection points: 2
#     Edge 47, Type (0, 0), BuildingBlock: E158, # of connection points: 2
# Relax obj value: 0.298
# Max RMSD: 0.296
# Mean RMSD: 0.271
data_pcb+N651+E158
_symmetry_space_group_name_H-M    P1
_symmetry_Int_Tables_number       1
_symmetry_cell_setting            triclinic
loop_
_symmetry_equiv_pos_as_xyz
'x, y, z'
_cell_length_a     34.133
_cell_length_b     33.323
_cell_length_c     38.215
_cell_angle_alpha  92.356
_cell_angle_beta   95.135
_cell_angle_gamma  92.977
loop_
_atom_site_label
_atom_site_type_symbol
_atom_site_fract_x
_atom_site_fract_y
_atom_site_fract_z
_atom_type_partial_charge
Zn0 Zn 0.81685 0.18393 0.86011 0.00000
Zn1 Zn 0.89169 0.17568 0.81621 0.00000
C2 C 0.84432 0.10665 0.83680 0.00000
Zn3 Zn 0.86510 0.26919 0.83811 0.00000
O4 O 0.87144 0.19346 0.77097 0.00000
O5 O 0.87252 0.25790 0.78542 0.00000
O6 O 0.79211 0.19175 0.90404 0.00000
O7 O 0.85262 0.18613 0.92325 0.00000
O8 O 0.81912 0.12535 0.85014 0.00000
O9 O 0.94847 0.17450 0.81230 0.00000
O10 O 0.94618 0.17581 0.86836 0.00000
O11 O 0.87061 0.11967 0.81993 0.00000
C12 C 0.86981 0.22970 0.76359 0.00000
O13 O 0.80467 0.26539 0.82523 0.00000
O14 O 0.77908 0.20365 0.82516 0.00000
O15 O 0.86811 0.21002 0.85118 0.00000
C16 C 0.81955 0.19186 0.92816 0.00000
C17 C 0.96422 0.17590 0.84328 0.00000
C18 C 0.77783 0.23985 0.81756 0.00000
Zn19 Zn 0.80462 0.18741 0.13152 0.00000
Zn20 Zn 0.81183 0.11265 0.18104 0.00000
C21 C 0.87991 0.15998 0.16096 0.00000
Zn22 Zn 0.72062 0.13928 0.15218 0.00000
O23 O 0.79383 0.13482 0.22388 0.00000
O24 O 0.73090 0.13343 0.20598 0.00000
O25 O 0.79768 0.21117 0.08547 0.00000
O26 O 0.80324 0.14891 0.07077 0.00000
O27 O 0.86187 0.18526 0.14486 0.00000
O28 O 0.81273 0.05496 0.18895 0.00000
O29 O 0.81225 0.05544 0.13269 0.00000
O30 O 0.86682 0.13381 0.17894 0.00000
C31 C 0.75822 0.13683 0.22915 0.00000
O32 O 0.72437 0.20122 0.16107 0.00000
O33 O 0.78494 0.22708 0.16275 0.00000
O34 O 0.77876 0.13560 0.14257 0.00000
C35 C 0.79782 0.18244 0.06325 0.00000
C36 C 0.81175 0.03790 0.15900 0.00000
C37 C 0.74937 0.22872 0.16828 0.00000
Zn38 Zn 0.83360 0.83680 0.17945 0.00000
Zn39 Zn 0.84016 0.77290 0.11583 0.00000
C40 C 0.90855 0.81499 0.15495 0.00000
Zn41 Zn 0.74946 0.79078 0.14000 0.00000
O42 O 0.82635 0.72317 0.13715 0.00000
O43 O 0.76290 0.73085 0.13664 0.00000
O44 O 0.82490 0.89071 0.19866 0.00000
O45 O 0.82622 0.90112 0.14363 0.00000
O46 O 0.89095 0.83276 0.17682 0.00000
O47 O 0.83860 0.75718 0.06572 0.00000
O48 O 0.83441 0.82123 0.06409 0.00000
O49 O 0.89546 0.78879 0.13304 0.00000
C50 C 0.79162 0.71031 0.13987 0.00000
O51 O 0.75695 0.78880 0.19433 0.00000
O52 O 0.81826 0.80204 0.21567 0.00000
O53 O 0.80610 0.81288 0.13518 0.00000
C54 C 0.82208 0.91261 0.17276 0.00000
C55 C 0.83476 0.78906 0.04975 0.00000
C56 C 0.78356 0.78885 0.21807 0.00000
Zn57 Zn 0.12311 0.83347 0.17830 0.00000
Zn58 Zn 0.18012 0.85303 0.11851 0.00000
C59 C 0.14505 0.91513 0.15966 0.00000
Zn60 Zn 0.16141 0.75553 0.13602 0.00000
O61 O 0.23036 0.83965 0.14110 0.00000
O62 O 0.22038 0.77404 0.13630 0.00000
O63 O 0.07170 0.81820 0.19433 0.00000
O64 O 0.05642 0.82595 0.13933 0.00000
O65 O 0.12900 0.89296 0.17945 0.00000
O66 O 0.19082 0.85906 0.06942 0.00000
O67 O 0.12769 0.85039 0.06458 0.00000
O68 O 0.16823 0.90641 0.13831 0.00000
C69 C 0.24192 0.80456 0.14223 0.00000
O70 O 0.16869 0.75631 0.19050 0.00000
O71 O 0.16000 0.81551 0.21488 0.00000
O72 O 0.14142 0.81271 0.13375 0.00000
C73 C 0.04770 0.81710 0.16744 0.00000
C74 C 0.15792 0.85491 0.05186 0.00000
C75 C 0.17184 0.78053 0.21571 0.00000
Zn76 Zn 0.18321 0.15158 0.14864 0.00000
Zn77 Zn 0.10936 0.13505 0.19293 0.00000
C78 C 0.15503 0.07113 0.16555 0.00000
Zn79 Zn 0.13697 0.23162 0.17888 0.00000
O80 O 0.13094 0.15398 0.23948 0.00000
O81 O 0.13060 0.21859 0.23072 0.00000
O82 O 0.20703 0.16269 0.10502 0.00000
O83 O 0.14605 0.15143 0.08616 0.00000
O84 O 0.18020 0.09258 0.15349 0.00000
O85 O 0.05272 0.12815 0.19755 0.00000
O86 O 0.05372 0.13076 0.14152 0.00000
O87 O 0.12939 0.08121 0.18396 0.00000
C88 C 0.13334 0.19024 0.25003 0.00000
O89 O 0.19756 0.23358 0.19057 0.00000
O90 O 0.22208 0.17439 0.18482 0.00000
O91 O 0.13267 0.17240 0.16062 0.00000
C92 C 0.17907 0.16053 0.08128 0.00000
C93 C 0.03629 0.12857 0.16689 0.00000
C94 C 0.22411 0.21056 0.19561 0.00000
Zn95 Zn 0.86718 0.85190 0.80687 0.00000
Zn96 Zn 0.81196 0.86292 0.86947 0.00000
C97 C 0.84553 0.93027 0.83345 0.00000
Zn98 Zn 0.83048 0.76831 0.84260 0.00000
O99 O 0.76127 0.84403 0.84647 0.00000
O100 O 0.77160 0.77961 0.84504 0.00000
O101 O 0.91805 0.84333 0.78854 0.00000
O102 O 0.93482 0.85149 0.84405 0.00000
O103 O 0.86106 0.91062 0.81133 0.00000
O104 O 0.80265 0.86634 0.91934 0.00000
O105 O 0.86577 0.86525 0.92231 0.00000
O106 O 0.82305 0.91819 0.85440 0.00000
C107 C 0.74985 0.80763 0.84228 0.00000
O108 O 0.82168 0.76963 0.78828 0.00000
O109 O 0.82943 0.83044 0.76922 0.00000
O110 O 0.85026 0.82777 0.84984 0.00000
C111 C 0.94274 0.84446 0.81495 0.00000
C112 C 0.83597 0.86575 0.93597 0.00000
C113 C 0.81773 0.79409 0.76535 0.00000
Zn114 Zn 0.15994 0.88058 0.79713 0.00000
Zn115 Zn 0.14200 0.81761 0.85532 0.00000
C116 C 0.08057 0.85846 0.81500 0.00000
Zn117 Zn 0.23678 0.83594 0.83854 0.00000
O118 O 0.15274 0.76760 0.83162 0.00000
O119 O 0.21718 0.77588 0.83680 0.00000
O120 O 0.17548 0.93430 0.78241 0.00000
O121 O 0.17073 0.94563 0.83761 0.00000
O122 O 0.10174 0.87604 0.79571 0.00000
O123 O 0.13798 0.80272 0.90400 0.00000
O124 O 0.14829 0.86690 0.91036 0.00000
O125 O 0.08939 0.83271 0.83575 0.00000
C126 C 0.18659 0.75500 0.83029 0.00000
O127 O 0.23345 0.83298 0.78404 0.00000
O128 O 0.17489 0.84532 0.75981 0.00000
O129 O 0.18165 0.85762 0.84115 0.00000
C130 C 0.17835 0.95668 0.80981 0.00000
C131 C 0.14365 0.83494 0.92231 0.00000
C132 C 0.20865 0.83240 0.75877 0.00000
Zn133 Zn 0.18622 0.17807 0.83821 0.00000
Zn134 Zn 0.24765 0.16557 0.90452 0.00000
C135 C 0.20762 0.09901 0.86111 0.00000
Zn136 Zn 0.22999 0.26078 0.88270 0.00000
O137 O 0.29673 0.18241 0.88659 0.00000
O138 O 0.28876 0.24730 0.88884 0.00000
O139 O 0.13369 0.18836 0.81653 0.00000
O140 O 0.12240 0.18132 0.87044 0.00000
O141 O 0.19052 0.11908 0.83908 0.00000
O142 O 0.26205 0.16225 0.95508 0.00000
O143 O 0.19920 0.16569 0.95334 0.00000
O144 O 0.23279 0.11047 0.88470 0.00000
C145 C 0.30915 0.21842 0.88579 0.00000
O146 O 0.23306 0.25864 0.82872 0.00000
O147 O 0.22091 0.19783 0.80476 0.00000
O148 O 0.20861 0.20201 0.88433 0.00000
C149 C 0.11169 0.18839 0.84110 0.00000
C150 C 0.23045 0.16422 0.96929 0.00000
C151 C 0.23365 0.23378 0.80429 0.00000
Zn152 Zn 0.68622 0.67807 0.33821 0.00000
Zn153 Zn 0.74765 0.66557 0.40452 0.00000
C154 C 0.70762 0.59901 0.36111 0.00000
Zn155 Zn 0.72999 0.76078 0.38270 0.00000
O156 O 0.79673 0.68241 0.38659 0.00000
O157 O 0.78876 0.74731 0.38884 0.00000
O158 O 0.63370 0.68836 0.31652 0.00000
O159 O 0.62240 0.68132 0.37043 0.00000
O160 O 0.69052 0.61908 0.33907 0.00000
O161 O 0.76205 0.66225 0.45507 0.00000
O162 O 0.69921 0.66569 0.45333 0.00000
O163 O 0.73279 0.61048 0.38470 0.00000
C164 C 0.80916 0.71842 0.38578 0.00000
O165 O 0.73306 0.75864 0.32872 0.00000
O166 O 0.72092 0.69784 0.30475 0.00000
O167 O 0.70861 0.70201 0.38433 0.00000
C168 C 0.61169 0.68839 0.34109 0.00000
C169 C 0.73046 0.66422 0.46928 0.00000
C170 C 0.73366 0.73378 0.30428 0.00000
Zn171 Zn 0.31685 0.68393 0.36011 0.00000
Zn172 Zn 0.39168 0.67568 0.31621 0.00000
C173 C 0.34431 0.60665 0.33681 0.00000
Zn174 Zn 0.36510 0.76919 0.33811 0.00000
O175 O 0.37143 0.69346 0.27097 0.00000
O176 O 0.37252 0.75790 0.28542 0.00000
O177 O 0.29211 0.69175 0.40404 0.00000
O178 O 0.35262 0.68613 0.42325 0.00000
O179 O 0.31911 0.62535 0.35014 0.00000
O180 O 0.44847 0.67450 0.31230 0.00000
O181 O 0.44618 0.67581 0.36836 0.00000
O182 O 0.37061 0.61967 0.31993 0.00000
C183 C 0.36981 0.72970 0.26359 0.00000
O184 O 0.30467 0.76539 0.32523 0.00000
O185 O 0.27908 0.70365 0.32516 0.00000
O186 O 0.36811 0.71002 0.35118 0.00000
C187 C 0.31955 0.69186 0.42816 0.00000
C188 C 0.46422 0.67590 0.34328 0.00000
C189 C 0.27783 0.73985 0.31756 0.00000
Zn190 Zn 0.36718 0.35190 0.30688 0.00000
Zn191 Zn 0.31195 0.36292 0.36947 0.00000
C192 C 0.34553 0.43027 0.33345 0.00000
Zn193 Zn 0.33048 0.26831 0.34260 0.00000
O194 O 0.26127 0.34403 0.34647 0.00000
O195 O 0.27160 0.27961 0.34504 0.00000
O196 O 0.41805 0.34333 0.28855 0.00000
O197 O 0.43482 0.35149 0.34405 0.00000
O198 O 0.36106 0.41061 0.31133 0.00000
O199 O 0.30265 0.36634 0.41934 0.00000
O200 O 0.36577 0.36525 0.42231 0.00000
O201 O 0.32305 0.41819 0.35440 0.00000
C202 C 0.24985 0.30763 0.34228 0.00000
O203 O 0.32168 0.26963 0.28828 0.00000
O204 O 0.32944 0.33044 0.26922 0.00000
O205 O 0.35026 0.32777 0.34984 0.00000
C206 C 0.44274 0.34446 0.31496 0.00000
C207 C 0.33597 0.36575 0.43597 0.00000
C208 C 0.31773 0.29409 0.26535 0.00000
Zn209 Zn 0.68321 0.65158 0.64865 0.00000
Zn210 Zn 0.60936 0.63505 0.69293 0.00000
C211 C 0.65503 0.57113 0.66555 0.00000
Zn212 Zn 0.63697 0.73162 0.67888 0.00000
O213 O 0.63094 0.65398 0.73948 0.00000
O214 O 0.63060 0.71859 0.73072 0.00000
O215 O 0.70703 0.66269 0.60502 0.00000
O216 O 0.64605 0.65143 0.58617 0.00000
O217 O 0.68020 0.59258 0.65349 0.00000
O218 O 0.55272 0.62815 0.69755 0.00000
O219 O 0.55372 0.63076 0.64153 0.00000
O220 O 0.62938 0.58121 0.68397 0.00000
C221 C 0.63334 0.69024 0.75004 0.00000
O222 O 0.69756 0.73358 0.69057 0.00000
O223 O 0.72208 0.67439 0.68483 0.00000
O224 O 0.63267 0.67240 0.66062 0.00000
C225 C 0.67907 0.66053 0.58128 0.00000
C226 C 0.53629 0.62857 0.66689 0.00000
C227 C 0.72411 0.71056 0.69561 0.00000
Zn228 Zn 0.30462 0.68741 0.63152 0.00000
Zn229 Zn 0.31183 0.61265 0.68104 0.00000
C230 C 0.37991 0.65998 0.66096 0.00000
Zn231 Zn 0.22062 0.63928 0.65218 0.00000
O232 O 0.29383 0.63481 0.72388 0.00000
O233 O 0.23090 0.63343 0.70598 0.00000
O234 O 0.29768 0.71117 0.58547 0.00000
O235 O 0.30324 0.64891 0.57077 0.00000
O236 O 0.36187 0.68526 0.64486 0.00000
O237 O 0.31273 0.55496 0.68895 0.00000
O238 O 0.31225 0.55544 0.63269 0.00000
O239 O 0.36682 0.63381 0.67894 0.00000
C240 C 0.25822 0.63683 0.72915 0.00000
O241 O 0.22437 0.70122 0.66107 0.00000
O242 O 0.28494 0.72708 0.66275 0.00000
O243 O 0.27876 0.63560 0.64257 0.00000
C244 C 0.29782 0.68244 0.56325 0.00000
C245 C 0.31175 0.53790 0.65900 0.00000
C246 C 0.24937 0.72872 0.66828 0.00000
Zn247 Zn 0.33360 0.33681 0.67945 0.00000
Zn248 Zn 0.34016 0.27290 0.61582 0.00000
C249 C 0.40855 0.31500 0.65495 0.00000
Zn250 Zn 0.24946 0.29078 0.63999 0.00000
O251 O 0.32635 0.22318 0.63714 0.00000
O252 O 0.26290 0.23086 0.63664 0.00000
O253 O 0.32490 0.39071 0.69866 0.00000
O254 O 0.32622 0.40112 0.64363 0.00000
O255 O 0.39095 0.33276 0.67682 0.00000
O256 O 0.33860 0.25718 0.56572 0.00000
O257 O 0.33442 0.32123 0.56409 0.00000
O258 O 0.39546 0.28879 0.63304 0.00000
C259 C 0.29162 0.21031 0.63987 0.00000
O260 O 0.25695 0.28880 0.69433 0.00000
O261 O 0.31826 0.30204 0.71566 0.00000
O262 O 0.30611 0.31288 0.63517 0.00000
C263 C 0.32208 0.41261 0.67275 0.00000
C264 C 0.33476 0.28907 0.54975 0.00000
C265 C 0.28356 0.28886 0.71806 0.00000
Zn266 Zn 0.62311 0.33347 0.67830 0.00000
Zn267 Zn 0.68012 0.35302 0.61851 0.00000
C268 C 0.64505 0.41513 0.65966 0.00000
Zn269 Zn 0.66141 0.25553 0.63602 0.00000
O270 O 0.73036 0.33965 0.64110 0.00000
O271 O 0.72038 0.27404 0.63630 0.00000
O272 O 0.57170 0.31820 0.69433 0.00000
O273 O 0.55642 0.32594 0.63933 0.00000
O274 O 0.62900 0.39296 0.67945 0.00000
O275 O 0.69082 0.35906 0.56942 0.00000
O276 O 0.62769 0.35039 0.56458 0.00000
O277 O 0.66823 0.40641 0.63831 0.00000
C278 C 0.74191 0.30456 0.64223 0.00000
O279 O 0.66869 0.25631 0.69050 0.00000
O280 O 0.65999 0.31551 0.71488 0.00000
O281 O 0.64142 0.31271 0.63375 0.00000
C282 C 0.54770 0.31710 0.66744 0.00000
C283 C 0.65792 0.35491 0.55186 0.00000
C284 C 0.67184 0.28053 0.71571 0.00000
Zn285 Zn 0.65994 0.38058 0.29713 0.00000
Zn286 Zn 0.64200 0.31761 0.35532 0.00000
C287 C 0.58057 0.35846 0.31500 0.00000
Zn288 Zn 0.73678 0.33594 0.33854 0.00000
O289 O 0.65274 0.26760 0.33162 0.00000
O290 O 0.71718 0.27588 0.33680 0.00000
O291 O 0.67548 0.43430 0.28241 0.00000
O292 O 0.67073 0.44563 0.33761 0.00000
O293 O 0.60174 0.37604 0.29571 0.00000
O294 O 0.63798 0.30272 0.40400 0.00000
O295 O 0.64829 0.36690 0.41036 0.00000
O296 O 0.58939 0.33271 0.33575 0.00000
C297 C 0.68659 0.25500 0.33030 0.00000
O298 O 0.73345 0.33298 0.28404 0.00000
O299 O 0.67489 0.34532 0.25981 0.00000
O300 O 0.68165 0.35762 0.34115 0.00000
C301 C 0.67835 0.45668 0.30981 0.00000
C302 C 0.64365 0.33494 0.42231 0.00000
C303 C 0.70865 0.33240 0.25877 0.00000
H304 H 0.76109 0.27501 0.71169 0.00000
H305 H 0.78453 0.29600 0.74116 0.00000
N306 N 0.77139 0.27300 0.73373 0.00000
C307 C 0.70272 0.26854 0.74644 0.00000
C308 C 0.74562 0.25098 0.78760 0.00000
N309 N 0.74167 0.26513 0.75498 0.00000
N310 N 0.68338 0.25721 0.77273 0.00000
N311 N 0.71142 0.24705 0.79953 0.00000
H312 H 0.65888 0.29052 0.19896 0.00000
H313 H 0.67894 0.29287 0.16705 0.00000
N314 N 0.67613 0.27902 0.18619 0.00000
C315 C 0.72271 0.29972 0.23647 0.00000
C316 C 0.74222 0.25599 0.19905 0.00000
N317 N 0.71193 0.27864 0.20584 0.00000
N318 N 0.75826 0.29071 0.24806 0.00000
N319 N 0.77101 0.26335 0.22321 0.00000
H320 H 0.70956 0.77547 0.22279 0.00000
H321 H 0.69910 0.73527 0.23360 0.00000
N322 N 0.70962 0.75951 0.24090 0.00000
C323 C 0.78084 0.76723 0.24015 0.00000
C324 C 0.75924 0.74273 0.28701 0.00000
N325 N 0.74776 0.75612 0.25508 0.00000
N326 N 0.81153 0.76077 0.26181 0.00000
N327 N 0.79729 0.74388 0.29154 0.00000
H328 H 0.24417 0.73329 0.20744 0.00000
H329 H 0.28051 0.75181 0.22517 0.00000
N330 N 0.25911 0.73618 0.22778 0.00000
C331 C 0.20378 0.77181 0.24700 0.00000
C332 C 0.24679 0.75425 0.28806 0.00000
N333 N 0.23807 0.75359 0.25291 0.00000
N334 N 0.19187 0.78348 0.27720 0.00000
N335 N 0.22040 0.77304 0.30346 0.00000
H336 H 0.30162 0.28936 0.18950 0.00000
H337 H 0.30342 0.24683 0.18003 0.00000
N338 N 0.28798 0.26578 0.18698 0.00000
C339 C 0.28649 0.27410 0.25042 0.00000
C340 C 0.24564 0.22832 0.22367 0.00000
N341 N 0.27446 0.25616 0.21863 0.00000
N342 N 0.26616 0.25790 0.27418 0.00000
N343 N 0.24068 0.22761 0.25680 0.00000
H344 H 0.83280 0.74614 0.71186 0.00000
H345 H 0.81868 0.70594 0.71988 0.00000
N346 N 0.81211 0.72856 0.70980 0.00000
C347 C 0.78439 0.77739 0.74835 0.00000
C348 C 0.74340 0.73165 0.72173 0.00000
N349 N 0.78170 0.74458 0.72607 0.00000
N350 N 0.74928 0.78435 0.75759 0.00000
N351 N 0.72324 0.75399 0.74106 0.00000
H352 H 0.29499 0.79706 0.70256 0.00000
H353 H 0.27273 0.83299 0.69957 0.00000
N354 N 0.27755 0.81178 0.71239 0.00000
C355 C 0.23316 0.75295 0.69688 0.00000
C356 C 0.21363 0.79698 0.73402 0.00000
N357 N 0.24309 0.78884 0.71401 0.00000
N358 N 0.19889 0.73954 0.70574 0.00000
N359 N 0.18604 0.76871 0.72893 0.00000
H360 H 0.30969 0.27848 0.81298 0.00000
H361 H 0.33413 0.26376 0.78648 0.00000
N362 N 0.31371 0.27841 0.79030 0.00000
C363 C 0.24996 0.24130 0.78265 0.00000
C364 C 0.27168 0.26534 0.73565 0.00000
N365 N 0.28057 0.26213 0.77050 0.00000
N366 N 0.22334 0.23179 0.75643 0.00000
N367 N 0.23814 0.24644 0.72606 0.00000
H368 H 0.90062 0.04506 0.80465 0.00000
H369 H 0.91744 0.01645 0.82865 0.00000
N370 N 0.89711 0.02088 0.81329 0.00000
C371 C 0.84212 0.05083 0.83896 0.00000
C372 C 0.84300 0.98574 0.83887 0.00000
N373 N 0.86294 0.01921 0.82990 0.00000
N374 N 0.81074 0.03755 0.85315 0.00000
N375 N 0.81218 0.99561 0.85388 0.00000
H376 H 0.99873 0.16720 0.21513 0.00000
H377 H 0.97500 0.20033 0.20438 0.00000
N378 N 0.97497 0.17383 0.20654 0.00000
C379 C 0.99056 0.13585 0.15428 0.00000
C380 C 0.92931 0.14942 0.15666 0.00000
N381 N 0.96550 0.15461 0.17408 0.00000
N382 N 0.97080 0.11993 0.12571 0.00000
N383 N 0.93152 0.12984 0.12704 0.00000
H384 H 0.75517 0.93155 0.15150 0.00000
H385 H 0.74054 0.96985 0.16250 0.00000
N386 N 0.75795 0.95811 0.15003 0.00000
C387 C 0.82166 0.95010 0.18225 0.00000
C388 C 0.81375 0.00724 0.15799 0.00000
N389 N 0.79550 0.97136 0.16309 0.00000
N390 N 0.85465 0.97196 0.18894 0.00000
N391 N 0.84885 0.00919 0.17403 0.00000
H392 H 0.96060 0.76383 0.11934 0.00000
H393 H 0.99724 0.78386 0.11097 0.00000
N394 N 0.98460 0.77303 0.12799 0.00000
C395 C 0.94865 0.82018 0.16145 0.00000
C396 C 0.01048 0.81570 0.17898 0.00000
N397 N 0.98162 0.80178 0.15439 0.00000
N398 N 0.95679 0.84465 0.18911 0.00000
N399 N 0.99701 0.84238 0.19960 0.00000
H400 H 0.20289 0.01523 0.12866 0.00000
H401 H 0.21695 0.98392 0.15124 0.00000
N402 N 0.19709 0.99105 0.13649 0.00000
C403 C 0.14627 0.02576 0.16444 0.00000
C404 C 0.14047 0.96050 0.16195 0.00000
N405 N 0.16345 0.99228 0.15377 0.00000
N406 N 0.11415 0.01517 0.17881 0.00000
N407 N 0.11129 0.97300 0.17798 0.00000
H408 H 0.98650 0.81252 0.85626 0.00000
H409 H 0.02131 0.79366 0.84564 0.00000
N410 N 0.01094 0.81702 0.85039 0.00000
C411 C 0.97803 0.84724 0.79965 0.00000
C412 C 0.04109 0.86050 0.80941 0.00000
N413 N 0.01023 0.83987 0.82117 0.00000
N414 N 0.98853 0.87122 0.77545 0.00000
N415 N 0.02945 0.87865 0.78139 0.00000
H416 H 0.09316 0.88045 0.96033 0.00000
H417 H 0.07793 0.85438 0.98615 0.00000
N418 N 0.09732 0.87200 0.98206 0.00000
C419 C 0.15408 0.84225 0.95926 0.00000
C420 C 0.15340 0.84586 0.01605 0.00000
N421 N 0.13270 0.85387 0.98564 0.00000
N422 N 0.18654 0.82745 0.97274 0.00000
N423 N 0.18528 0.82886 0.00934 0.00000
H424 H 0.85296 0.24071 0.02365 0.00000
H425 H 0.86979 0.21341 0.99990 0.00000
N426 N 0.85008 0.22936 0.00203 0.00000
C427 C 0.79183 0.19601 0.02257 0.00000
C428 C 0.79584 0.19327 0.96616 0.00000
N429 N 0.81482 0.20697 0.99716 0.00000
N430 N 0.76007 0.17615 0.00795 0.00000
N431 N 0.76349 0.17355 0.97165 0.00000
H432 H 0.89169 0.80296 0.96347 0.00000
H433 H 0.90482 0.80745 0.00010 0.00000
N434 N 0.88495 0.79896 0.98507 0.00000
C435 C 0.83741 0.84913 0.97078 0.00000
C436 C 0.82813 0.81438 0.01644 0.00000
N437 N 0.85229 0.82000 0.99079 0.00000
N438 N 0.80552 0.86122 0.98361 0.00000
N439 N 0.80044 0.83942 0.01364 0.00000
H440 H 0.16621 0.21108 0.99142 0.00000
H441 H 0.14090 0.18410 0.00958 0.00000
N442 N 0.16295 0.19984 0.01175 0.00000
C443 C 0.22202 0.16582 0.99990 0.00000
C444 C 0.20495 0.16346 0.05291 0.00000
N445 N 0.19455 0.17715 0.02086 0.00000
N446 N 0.24820 0.14576 0.01769 0.00000
N447 N 0.23629 0.14342 0.05176 0.00000
H448 H 0.76006 0.70378 0.56528 0.00000
H449 H 0.78034 0.67722 0.54272 0.00000
N450 N 0.76140 0.69456 0.54327 0.00000
C451 C 0.69628 0.66417 0.55009 0.00000
C452 C 0.71329 0.66606 0.49677 0.00000
N453 N 0.72587 0.67548 0.53072 0.00000
N454 N 0.66671 0.64819 0.52905 0.00000
N455 N 0.67843 0.64851 0.49482 0.00000
H456 H 0.24396 0.73231 0.46632 0.00000
H457 H 0.22706 0.70563 0.49085 0.00000
N458 N 0.24682 0.72334 0.48795 0.00000
C459 C 0.30498 0.69404 0.46746 0.00000
C460 C 0.30097 0.69631 0.52387 0.00000
N461 N 0.28202 0.70507 0.49285 0.00000
N462 N 0.33669 0.67887 0.48209 0.00000
N463 N 0.33328 0.67941 0.51840 0.00000
H464 H 0.28975 0.30497 0.44379 0.00000
H465 H 0.30687 0.26963 0.45857 0.00000
N466 N 0.29688 0.29311 0.46362 0.00000
C467 C 0.34521 0.34976 0.47274 0.00000
C468 C 0.33601 0.31468 0.51822 0.00000
N469 N 0.32487 0.31744 0.48368 0.00000
N470 N 0.36816 0.36618 0.49932 0.00000
N471 N 0.36283 0.34263 0.52828 0.00000
H472 H 0.49804 0.66389 0.71622 0.00000
H473 H 0.47468 0.69774 0.70677 0.00000
N474 N 0.47444 0.67107 0.70773 0.00000
C475 C 0.49061 0.63610 0.65417 0.00000
C476 C 0.42936 0.64966 0.65657 0.00000
N477 N 0.46534 0.65376 0.67447 0.00000
N478 N 0.47117 0.62187 0.62484 0.00000
N479 N 0.43190 0.63180 0.62623 0.00000
H480 H 0.35647 0.48312 0.62144 0.00000
H481 H 0.38024 0.47032 0.65205 0.00000
N482 N 0.35724 0.46647 0.63908 0.00000
C483 C 0.30493 0.50633 0.65880 0.00000
C484 C 0.31292 0.44942 0.68342 0.00000
N485 N 0.32708 0.47386 0.65967 0.00000
N486 N 0.27833 0.50231 0.68121 0.00000
N487 N 0.28448 0.46604 0.69768 0.00000
H488 H 0.47130 0.30844 0.60260 0.00000
H489 H 0.50439 0.33726 0.61207 0.00000
N490 N 0.49325 0.31358 0.61681 0.00000
C491 C 0.44790 0.31656 0.66239 0.00000
C492 C 0.50969 0.31213 0.68007 0.00000
N493 N 0.48425 0.31460 0.65123 0.00000
N494 N 0.45070 0.31560 0.69672 0.00000
N495 N 0.49082 0.31391 0.70792 0.00000
H496 H 0.59647 0.51940 0.69468 0.00000
H497 H 0.57716 0.48925 0.66940 0.00000
N498 N 0.59799 0.49491 0.68489 0.00000
C499 C 0.65515 0.52541 0.66028 0.00000
C500 C 0.64913 0.46016 0.65737 0.00000
N501 N 0.63190 0.49351 0.66800 0.00000
N502 N 0.68538 0.51240 0.64530 0.00000
N503 N 0.68061 0.47030 0.64264 0.00000
H504 H 0.52498 0.37617 0.36914 0.00000
H505 H 0.49197 0.39805 0.35465 0.00000
N506 N 0.50189 0.37393 0.35622 0.00000
C507 C 0.54182 0.35548 0.30902 0.00000
C508 C 0.47877 0.34226 0.29900 0.00000
N509 N 0.50707 0.35858 0.32306 0.00000
N510 N 0.53531 0.33820 0.27752 0.00000
N511 N 0.49444 0.33085 0.27092 0.00000
H512 H 0.62644 0.52310 0.30397 0.00000
H513 H 0.62557 0.53108 0.34158 0.00000
N514 N 0.63759 0.53754 0.32268 0.00000
C515 C 0.69445 0.49885 0.31272 0.00000
C516 C 0.70519 0.55184 0.34792 0.00000
N517 N 0.67680 0.52960 0.32791 0.00000
N518 N 0.73212 0.50177 0.32303 0.00000
N519 N 0.73855 0.53540 0.34652 0.00000
H520 H 0.53702 0.69839 0.40320 0.00000
H521 H 0.56749 0.67062 0.39729 0.00000
N522 N 0.55680 0.69311 0.39037 0.00000
C523 C 0.50460 0.68336 0.34257 0.00000
C524 C 0.56440 0.68944 0.32757 0.00000
N525 N 0.54282 0.68834 0.35544 0.00000
N526 N 0.50258 0.68122 0.30819 0.00000
N527 N 0.54139 0.68401 0.29881 0.00000
H528 H 0.28832 0.48898 0.30192 0.00000
H529 H 0.27509 0.51972 0.32556 0.00000
N530 N 0.29316 0.51395 0.31098 0.00000
C531 C 0.35218 0.48640 0.33887 0.00000
C532 C 0.35134 0.55151 0.33938 0.00000
N533 N 0.32995 0.51719 0.32917 0.00000
N534 N 0.38582 0.50102 0.35461 0.00000
N535 N 0.38452 0.54304 0.35569 0.00000
H536 H 0.70550 0.38928 0.51282 0.00000
H537 H 0.72047 0.36115 0.48784 0.00000
N538 N 0.70124 0.37749 0.49140 0.00000
C539 C 0.64420 0.34561 0.51517 0.00000
C540 C 0.64487 0.34152 0.45839 0.00000
N541 N 0.66568 0.35560 0.48845 0.00000
N542 N 0.61158 0.32596 0.50223 0.00000
N543 N 0.61283 0.32249 0.46567 0.00000
H544 H 0.23920 0.07447 0.80416 0.00000
H545 H 0.25649 0.03559 0.80179 0.00000
N546 N 0.23425 0.04837 0.79875 0.00000
C547 C 0.19655 0.05097 0.84985 0.00000
C548 C 0.18595 0.99770 0.81496 0.00000
N549 N 0.20747 0.03289 0.82022 0.00000
N550 N 0.16959 0.02786 0.86254 0.00000
N551 N 0.16379 0.99306 0.84039 0.00000
H552 H 0.99107 0.17017 0.78724 0.00000
H553 H 0.01678 0.20387 0.77877 0.00000
N554 N 0.01585 0.18025 0.78883 0.00000
C555 C 0.00824 0.18434 0.85159 0.00000
C556 C 0.06802 0.19092 0.83662 0.00000
N557 N 0.02995 0.18546 0.82370 0.00000
N558 N 0.03184 0.18916 0.88055 0.00000
N559 N 0.07024 0.19453 0.87057 0.00000
loop_
_geom_bond_atom_site_label_1
_geom_bond_atom_site_label_2
_geom_bond_distance
_geom_bond_site_symmetry_2
_ccdc_geom_bond_type
Zn0 O6 1.959 . S
Zn0 O8 1.980 . S
Zn0 O14 1.931 . S
Zn0 O15 1.976 . S
Zn1 O4 1.931 . S
Zn1 O9 1.960 . S
Zn1 O11 1.980 . S
Zn1 O15 1.976 . S
C2 O8 1.223 . A
C2 O11 1.223 . A
Zn3 O5 2.073 . S
Zn3 O13 2.073 . S
Zn3 O15 2.059 . S
O4 C12 1.254 . A
O5 C12 1.225 . A
O6 C16 1.254 . S
O7 C16 1.185 . D
O9 C17 1.254 . S
O10 C17 1.185 . D
O13 C18 1.225 . A
O14 C18 1.254 . A
Zn19 O25 1.959 . S
Zn19 O27 1.980 . S
Zn19 O33 1.931 . S
Zn19 O34 1.976 . S
Zn20 O23 1.931 . S
Zn20 O28 1.960 . S
Zn20 O30 1.980 . S
Zn20 O34 1.976 . S
C21 O27 1.223 . A
C21 O30 1.223 . A
Zn22 O24 2.073 . S
Zn22 O32 2.073 . S
Zn22 O34 2.059 . S
O23 C31 1.254 . A
O24 C31 1.225 . A
O25 C35 1.254 . S
O26 C35 1.185 . D
O28 C36 1.254 . S
O29 C36 1.185 . D
O32 C37 1.225 . A
O33 C37 1.254 . A
Zn38 O44 1.959 . S
Zn38 O46 1.980 . S
Zn38 O52 1.931 . S
Zn38 O53 1.976 . S
Zn39 O42 1.931 . S
Zn39 O47 1.960 . S
Zn39 O49 1.980 . S
Zn39 O53 1.976 . S
C40 O46 1.223 . A
C40 O49 1.223 . A
Zn41 O43 2.073 . S
Zn41 O51 2.073 . S
Zn41 O53 2.059 . S
O42 C50 1.254 . A
O43 C50 1.225 . A
O44 C54 1.254 . S
O45 C54 1.185 . D
O47 C55 1.254 . S
O48 C55 1.185 . D
O51 C56 1.225 . A
O52 C56 1.254 . A
Zn57 O63 1.959 . S
Zn57 O65 1.980 . S
Zn57 O71 1.931 . S
Zn57 O72 1.976 . S
Zn58 O61 1.931 . S
Zn58 O66 1.960 . S
Zn58 O68 1.980 . S
Zn58 O72 1.976 . S
C59 O65 1.223 . A
C59 O68 1.223 . A
Zn60 O62 2.073 . S
Zn60 O70 2.073 . S
Zn60 O72 2.059 . S
O61 C69 1.254 . A
O62 C69 1.225 . A
O63 C73 1.254 . S
O64 C73 1.185 . D
O66 C74 1.254 . S
O67 C74 1.185 . D
O70 C75 1.225 . A
O71 C75 1.254 . A
Zn76 O82 1.959 . S
Zn76 O84 1.980 . S
Zn76 O90 1.931 . S
Zn76 O91 1.976 . S
Zn77 O80 1.931 . S
Zn77 O85 1.960 . S
Zn77 O87 1.980 . S
Zn77 O91 1.976 . S
C78 O84 1.223 . A
C78 O87 1.223 . A
Zn79 O81 2.073 . S
Zn79 O89 2.073 . S
Zn79 O91 2.059 . S
O80 C88 1.254 . A
O81 C88 1.225 . A
O82 C92 1.254 . S
O83 C92 1.185 . D
O85 C93 1.254 . S
O86 C93 1.185 . D
O89 C94 1.225 . A
O90 C94 1.254 . A
Zn95 O101 1.959 . S
Zn95 O103 1.980 . S
Zn95 O109 1.931 . S
Zn95 O110 1.976 . S
Zn96 O99 1.931 . S
Zn96 O104 1.960 . S
Zn96 O106 1.980 . S
Zn96 O110 1.976 . S
C97 O103 1.223 . A
C97 O106 1.223 . A
Zn98 O100 2.073 . S
Zn98 O108 2.073 . S
Zn98 O110 2.059 . S
O99 C107 1.254 . A
O100 C107 1.225 . A
O101 C111 1.254 . S
O102 C111 1.185 . D
O104 C112 1.254 . S
O105 C112 1.185 . D
O108 C113 1.225 . A
O109 C113 1.254 . A
Zn114 O120 1.959 . S
Zn114 O122 1.980 . S
Zn114 O128 1.931 . S
Zn114 O129 1.976 . S
Zn115 O118 1.931 . S
Zn115 O123 1.960 . S
Zn115 O125 1.980 . S
Zn115 O129 1.976 . S
C116 O122 1.223 . A
C116 O125 1.223 . A
Zn117 O119 2.073 . S
Zn117 O127 2.073 . S
Zn117 O129 2.059 . S
O118 C126 1.254 . A
O119 C126 1.225 . A
O120 C130 1.254 . S
O121 C130 1.185 . D
O123 C131 1.254 . S
O124 C131 1.185 . D
O127 C132 1.225 . A
O128 C132 1.254 . A
Zn133 O139 1.959 . S
Zn133 O141 1.980 . S
Zn133 O147 1.931 . S
Zn133 O148 1.976 . S
Zn134 O137 1.931 . S
Zn134 O142 1.960 . S
Zn134 O144 1.980 . S
Zn134 O148 1.976 . S
C135 O141 1.223 . A
C135 O144 1.223 . A
Zn136 O138 2.073 . S
Zn136 O146 2.073 . S
Zn136 O148 2.059 . S
O137 C145 1.254 . A
O138 C145 1.225 . A
O139 C149 1.254 . S
O140 C149 1.185 . D
O142 C150 1.254 . S
O143 C150 1.185 . D
O146 C151 1.225 . A
O147 C151 1.254 . A
Zn152 O158 1.959 . S
Zn152 O160 1.980 . S
Zn152 O166 1.931 . S
Zn152 O167 1.976 . S
Zn153 O156 1.931 . S
Zn153 O161 1.960 . S
Zn153 O163 1.980 . S
Zn153 O167 1.976 . S
C154 O160 1.223 . A
C154 O163 1.223 . A
Zn155 O157 2.073 . S
Zn155 O165 2.073 . S
Zn155 O167 2.059 . S
O156 C164 1.254 . A
O157 C164 1.225 . A
O158 C168 1.254 . S
O159 C168 1.185 . D
O161 C169 1.254 . S
O162 C169 1.185 . D
O165 C170 1.225 . A
O166 C170 1.254 . A
Zn171 O177 1.959 . S
Zn171 O179 1.980 . S
Zn171 O185 1.931 . S
Zn171 O186 1.976 . S
Zn172 O175 1.931 . S
Zn172 O180 1.960 . S
Zn172 O182 1.980 . S
Zn172 O186 1.976 . S
C173 O179 1.223 . A
C173 O182 1.223 . A
Zn174 O176 2.073 . S
Zn174 O184 2.073 . S
Zn174 O186 2.059 . S
O175 C183 1.254 . A
O176 C183 1.225 . A
O177 C187 1.254 . S
O178 C187 1.185 . D
O180 C188 1.254 . S
O181 C188 1.185 . D
O184 C189 1.225 . A
O185 C189 1.254 . A
Zn190 O196 1.959 . S
Zn190 O198 1.980 . S
Zn190 O204 1.931 . S
Zn190 O205 1.976 . S
Zn191 O194 1.931 . S
Zn191 O199 1.960 . S
Zn191 O201 1.980 . S
Zn191 O205 1.976 . S
C192 O198 1.223 . A
C192 O201 1.223 . A
Zn193 O195 2.073 . S
Zn193 O203 2.073 . S
Zn193 O205 2.059 . S
O194 C202 1.254 . A
O195 C202 1.225 . A
O196 C206 1.254 . S
O197 C206 1.185 . D
O199 C207 1.254 . S
O200 C207 1.185 . D
O203 C208 1.225 . A
O204 C208 1.254 . A
Zn209 O215 1.959 . S
Zn209 O217 1.980 . S
Zn209 O223 1.931 . S
Zn209 O224 1.976 . S
Zn210 O213 1.931 . S
Zn210 O218 1.960 . S
Zn210 O220 1.980 . S
Zn210 O224 1.976 . S
C211 O217 1.223 . A
C211 O220 1.223 . A
Zn212 O214 2.073 . S
Zn212 O222 2.073 . S
Zn212 O224 2.059 . S
O213 C221 1.254 . A
O214 C221 1.225 . A
O215 C225 1.254 . S
O216 C225 1.185 . D
O218 C226 1.254 . S
O219 C226 1.185 . D
O222 C227 1.225 . A
O223 C227 1.254 . A
Zn228 O234 1.959 . S
Zn228 O236 1.980 . S
Zn228 O242 1.931 . S
Zn228 O243 1.976 . S
Zn229 O232 1.931 . S
Zn229 O237 1.960 . S
Zn229 O239 1.980 . S
Zn229 O243 1.976 . S
C230 O236 1.223 . A
C230 O239 1.223 . A
Zn231 O233 2.073 . S
Zn231 O241 2.073 . S
Zn231 O243 2.059 . S
O232 C240 1.254 . A
O233 C240 1.225 . A
O234 C244 1.254 . S
O235 C244 1.185 . D
O237 C245 1.254 . S
O238 C245 1.185 . D
O241 C246 1.225 . A
O242 C246 1.254 . A
Zn247 O253 1.959 . S
Zn247 O255 1.980 . S
Zn247 O261 1.931 . S
Zn247 O262 1.976 . S
Zn248 O251 1.931 . S
Zn248 O256 1.960 . S
Zn248 O258 1.980 . S
Zn248 O262 1.976 . S
C249 O255 1.223 . A
C249 O258 1.223 . A
Zn250 O252 2.073 . S
Zn250 O260 2.073 . S
Zn250 O262 2.059 . S
O251 C259 1.254 . A
O252 C259 1.225 . A
O253 C263 1.254 . S
O254 C263 1.185 . D
O256 C264 1.254 . S
O257 C264 1.185 . D
O260 C265 1.225 . A
O261 C265 1.254 . A
Zn266 O272 1.959 . S
Zn266 O274 1.980 . S
Zn266 O280 1.931 . S
Zn266 O281 1.976 . S
Zn267 O270 1.931 . S
Zn267 O275 1.960 . S
Zn267 O277 1.980 . S
Zn267 O281 1.976 . S
C268 O274 1.223 . A
C268 O277 1.223 . A
Zn269 O271 2.073 . S
Zn269 O279 2.073 . S
Zn269 O281 2.059 . S
O270 C278 1.254 . A
O271 C278 1.225 . A
O272 C282 1.254 . S
O273 C282 1.185 . D
O275 C283 1.254 . S
O276 C283 1.185 . D
O279 C284 1.225 . A
O280 C284 1.254 . A
Zn285 O291 1.959 . S
Zn285 O293 1.980 . S
Zn285 O299 1.931 . S
Zn285 O300 1.976 . S
Zn286 O289 1.931 . S
Zn286 O294 1.960 . S
Zn286 O296 1.980 . S
Zn286 O300 1.976 . S
C287 O293 1.223 . A
C287 O296 1.223 . A
Zn288 O290 2.073 . S
Zn288 O298 2.073 . S
Zn288 O300 2.059 . S
O289 C297 1.254 . A
O290 C297 1.225 . A
O291 C301 1.254 . S
O292 C301 1.185 . D
O294 C302 1.254 . S
O295 C302 1.185 . D
O298 C303 1.225 . A
O299 C303 1.254 . A
H304 N306 0.890 . S
H305 N306 0.890 . S
N306 N309 1.377 . S
C307 N309 1.352 . A
C307 N310 1.308 . A
C308 N309 1.349 . A
C308 N311 1.293 . A
N310 N311 1.402 . A
H312 N314 0.890 . S
H313 N314 0.890 . S
N314 N317 1.377 . S
C315 N317 1.352 . A
C315 N318 1.308 . A
C316 N317 1.349 . A
C316 N319 1.293 . A
N318 N319 1.402 . A
H320 N322 0.890 . S
H321 N322 0.890 . S
N322 N325 1.377 . S
C323 N325 1.352 . A
C323 N326 1.308 . A
C324 N325 1.349 . A
C324 N327 1.293 . A
N326 N327 1.402 . A
H328 N330 0.890 . S
H329 N330 0.890 . S
N330 N333 1.377 . S
C331 N333 1.352 . A
C331 N334 1.308 . A
C332 N333 1.349 . A
C332 N335 1.293 . A
N334 N335 1.402 . A
H336 N338 0.890 . S
H337 N338 0.890 . S
N338 N341 1.377 . S
C339 N341 1.352 . A
C339 N342 1.308 . A
C340 N341 1.349 . A
C340 N343 1.293 . A
N342 N343 1.402 . A
H344 N346 0.890 . S
H345 N346 0.890 . S
N346 N349 1.377 . S
C347 N349 1.352 . A
C347 N350 1.308 . A
C348 N349 1.349 . A
C348 N351 1.293 . A
N350 N351 1.402 . A
H352 N354 0.890 . S
H353 N354 0.890 . S
N354 N357 1.377 . S
C355 N357 1.352 . A
C355 N358 1.308 . A
C356 N357 1.349 . A
C356 N359 1.293 . A
N358 N359 1.402 . A
H360 N362 0.890 . S
H361 N362 0.890 . S
N362 N365 1.377 . S
C363 N365 1.352 . A
C363 N366 1.308 . A
C364 N365 1.349 . A
C364 N367 1.293 . A
N366 N367 1.402 . A
H368 N370 0.890 . S
H369 N370 0.890 . S
N370 N373 1.377 . S
C371 N373 1.352 . A
C371 N374 1.308 . A
C372 N373 1.349 1_565 A
C372 N375 1.293 . A
N374 N375 1.402 1_545 A
H376 N378 0.890 . S
H377 N378 0.890 . S
N378 N381 1.377 . S
C379 N381 1.352 . A
C379 N382 1.308 . A
C380 N381 1.349 . A
C380 N383 1.293 . A
N382 N383 1.402 . A
H384 N386 0.890 . S
H385 N386 0.890 . S
N386 N389 1.377 . S
C387 N389 1.352 . A
C387 N390 1.308 . A
C388 N389 1.349 1_545 A
C388 N391 1.293 . A
N390 N391 1.402 1_565 A
H392 N394 0.890 . S
H393 N394 0.890 . S
N394 N397 1.377 . S
C395 N397 1.352 . A
C395 N398 1.308 . A
C396 N397 1.349 1_455 A
C396 N399 1.293 1_455 A
N398 N399 1.402 . A
H400 N402 0.890 1_545 S
H401 N402 0.890 . S
N402 N405 1.377 . S
C403 N405 1.352 1_545 A
C403 N406 1.308 . A
C404 N405 1.349 . A
C404 N407 1.293 . A
N406 N407 1.402 1_545 A
H408 N410 0.890 1_655 S
H409 N410 0.890 . S
N410 N413 1.377 . S
C411 N413 1.352 1_655 A
C411 N414 1.308 . A
C412 N413 1.349 . A
C412 N415 1.293 . A
N414 N415 1.402 1_655 A
H416 N418 0.890 . S
H417 N418 0.890 . S
N418 N421 1.377 . S
C419 N421 1.352 . A
C419 N422 1.308 . A
C420 N421 1.349 1_554 A
C420 N423 1.293 . A
N422 N423 1.402 1_556 A
H424 N426 0.890 . S
H425 N426 0.886 1_556 S
N426 N429 1.377 1_554 S
C427 N429 1.352 1_554 A
C427 N430 1.308 . A
C428 N429 1.349 . A
C428 N431 1.293 . A
N430 N431 1.402 1_554 A
H432 N434 0.890 . S
H433 N434 0.876 1_554 S
N434 N437 1.377 . S
C435 N437 1.352 . A
C435 N438 1.308 . A
C436 N437 1.349 1_554 A
C436 N439 1.293 . A
N438 N439 1.402 1_556 A
H440 N442 0.890 1_556 S
H441 N442 0.890 . S
N442 N445 1.377 . S
C443 N445 1.345 1_556 A
C443 N446 1.303 1_556 A
C444 N445 1.349 . A
C444 N447 1.293 . A
N446 N447 1.402 . A
H448 N450 0.890 . S
H449 N450 0.890 . S
N450 N453 1.377 . S
C451 N453 1.352 . A
C451 N454 1.308 . A
C452 N453 1.349 . A
C452 N455 1.293 . A
N454 N455 1.402 . A
H456 N458 0.890 . S
H457 N458 0.890 . S
N458 N461 1.377 . S
C459 N461 1.352 . A
C459 N462 1.308 . A
C460 N461 1.349 . A
C460 N463 1.293 . A
N462 N463 1.402 . A
H464 N466 0.890 . S
H465 N466 0.890 . S
N466 N469 1.377 . S
C467 N469 1.352 . A
C467 N470 1.308 . A
C468 N469 1.349 . A
C468 N471 1.293 . A
N470 N471 1.402 . A
H472 N474 0.890 . S
H473 N474 0.890 . S
N474 N477 1.377 . S
C475 N477 1.352 . A
C475 N478 1.308 . A
C476 N477 1.349 . A
C476 N479 1.293 . A
N478 N479 1.402 . A
H480 N482 0.890 . S
H481 N482 0.890 . S
N482 N485 1.377 . S
C483 N485 1.352 . A
C483 N486 1.308 . A
C484 N485 1.349 . A
C484 N487 1.293 . A
N486 N487 1.402 . A
H488 N490 0.890 . S
H489 N490 0.890 . S
N490 N493 1.377 . S
C491 N493 1.352 . A
C491 N494 1.308 . A
C492 N493 1.349 . A
C492 N495 1.293 . A
N494 N495 1.402 . A
H496 N498 0.890 . S
H497 N498 0.890 . S
N498 N501 1.377 . S
C499 N501 1.352 . A
C499 N502 1.308 . A
C500 N501 1.349 . A
C500 N503 1.293 . A
N502 N503 1.402 . A
H504 N506 0.890 . S
H505 N506 0.890 . S
N506 N509 1.377 . S
C507 N509 1.352 . A
C507 N510 1.308 . A
C508 N509 1.349 . A
C508 N511 1.293 . A
N510 N511 1.402 . A
H512 N514 0.890 . S
H513 N514 0.890 . S
N514 N517 1.377 . S
C515 N517 1.352 . A
C515 N518 1.308 . A
C516 N517 1.349 . A
C516 N519 1.293 . A
N518 N519 1.402 . A
H520 N522 0.890 . S
H521 N522 0.890 . S
N522 N525 1.377 . S
C523 N525 1.352 . A
C523 N526 1.308 . A
C524 N525 1.349 . A
C524 N527 1.293 . A
N526 N527 1.402 . A
H528 N530 0.890 . S
H529 N530 0.890 . S
N530 N533 1.377 . S
C531 N533 1.352 . A
C531 N534 1.308 . A
C532 N533 1.349 . A
C532 N535 1.293 . A
N534 N535 1.402 . A
H536 N538 0.890 . S
H537 N538 0.890 . S
N538 N541 1.377 . S
C539 N541 1.352 . A
C539 N542 1.308 . A
C540 N541 1.349 . A
C540 N543 1.293 . A
N542 N543 1.402 . A
H544 N546 0.890 . S
H545 N546 0.890 . S
N546 N549 1.377 . S
C547 N549 1.352 . A
C547 N550 1.308 . A
C548 N549 1.349 1_565 A
C548 N551 1.293 . A
N550 N551 1.402 1_545 A
H552 N554 0.890 1_655 S
H553 N554 0.890 . S
N554 N557 1.377 . S
C555 N557 1.352 . A
C555 N558 1.308 . A
C556 N557 1.349 . A
C556 N559 1.293 . A
N558 N559 1.402 . A
C307 C284 1.584 . S
C308 C18 1.584 . S
C315 C303 1.481 . S
C316 C37 1.502 . S
C323 C56 1.139 . S
C324 C170 1.174 . S
C331 C75 1.591 . S
C332 C189 1.583 . S
C339 C208 1.301 . S
C340 C94 1.342 . S
C347 C113 1.341 . S
C348 C227 1.304 . S
C355 C246 1.495 . S
C356 C132 1.508 . S
C363 C151 1.068 . S
C364 C265 1.136 . S
C371 C2 1.863 . S
C372 C97 1.859 . S
C379 C93 1.625 1_655 S
C380 C21 1.761 . S
C387 C54 1.288 . S
C388 C36 1.027 . S
C395 C40 1.370 . S
C396 C73 1.381 . S
C403 C78 1.524 . S
C404 C59 1.528 . S
C411 C111 1.386 . S
C412 C116 1.351 . S
C419 C131 1.433 . S
C420 C74 1.382 . S
C427 C35 1.635 . S
C428 C16 1.725 . S
C435 C112 1.460 . S
C436 C55 1.562 . S
C443 C150 1.229 . S
C444 C92 1.462 . S
C451 C225 1.382 . S
C452 C169 1.248 . S
C459 C187 1.623 . S
C460 C244 1.604 . S
C467 C207 1.535 . S
C468 C264 1.507 . S
C475 C226 1.626 . S
C476 C230 1.761 . S
C483 C245 1.065 . S
C484 C263 1.338 . S
C491 C249 1.346 . S
C492 C282 1.428 . S
C499 C211 1.529 . S
C500 C268 1.507 . S
C507 C287 1.320 . S
C508 C206 1.425 . S
C515 C301 1.478 . S
C516 C154 1.626 . S
C523 C188 1.390 . S
C524 C168 1.653 . S
C531 C192 1.873 . S
C532 C173 1.871 . S
C539 C283 1.454 . S
C540 C302 1.384 . S
C547 C135 1.656 . S
C548 C130 1.381 . S
C555 C17 1.517 1_455 S
C556 C149 1.492 . S
