# Generated by pormake.
# Topology pcb, (4)-cn, num edge types: 1
# Building blocks:
#     Node 0, Type 0, BuildingBlock: N450, # of connection points: 4
#     Node 1, Type 0, BuildingBlock: N450, # of connection points: 4
#     Node 2, Type 0, BuildingBlock: N450, # of connection points: 4
#     Node 3, Type 0, BuildingBlock: N450, # of connection points: 4
#     Node 4, Type 0, BuildingBlock: N450, # of connection points: 4
#     Node 5, Type 0, BuildingBlock: N450, # of connection points: 4
#     Node 6, Type 0, BuildingBlock: N450, # of connection points: 4
#     Node 7, Type 0, BuildingBlock: N450, # of connection points: 4
#     Node 8, Type 0, BuildingBlock: N450, # of connection points: 4
#     Node 9, Type 0, BuildingBlock: N450, # of connection points: 4
#     Node 10, Type 0, BuildingBlock: N450, # of connection points: 4
#     Node 11, Type 0, BuildingBlock: N450, # of connection points: 4
#     Node 12, Type 0, BuildingBlock: N450, # of connection points: 4
#     Node 13, Type 0, BuildingBlock: N450, # of connection points: 4
#     Node 14, Type 0, BuildingBlock: N450, # of connection points: 4
#     Node 15, Type 0, BuildingBlock: N450, # of connection points: 4
#     Edge 16, Type (0, 0), BuildingBlock: E36, # of connection points: 2
#     Edge 17, Type (0, 0), BuildingBlock: E36, # of connection points: 2
#     Edge 18, Type (0, 0), BuildingBlock: E36, # of connection points: 2
#     Edge 19, Type (0, 0), BuildingBlock: E36, # of connection points: 2
#     Edge 20, Type (0, 0), BuildingBlock: E36, # of connection points: 2
#     Edge 21, Type (0, 0), BuildingBlock: E36, # of connection points: 2
#     Edge 22, Type (0, 0), BuildingBlock: E36, # of connection points: 2
#     Edge 23, Type (0, 0), BuildingBlock: E36, # of connection points: 2
#     Edge 24, Type (0, 0), BuildingBlock: E36, # of connection points: 2
#     Edge 25, Type (0, 0), BuildingBlock: E36, # of connection points: 2
#     Edge 26, Type (0, 0), BuildingBlock: E36, # of connection points: 2
#     Edge 27, Type (0, 0), BuildingBlock: E36, # of connection points: 2
#     Edge 28, Type (0, 0), BuildingBlock: E36, # of connection points: 2
#     Edge 29, Type (0, 0), BuildingBlock: E36, # of connection points: 2
#     Edge 30, Type (0, 0), BuildingBlock: E36, # of connection points: 2
#     Edge 31, Type (0, 0), BuildingBlock: E36, # of connection points: 2
#     Edge 32, Type (0, 0), BuildingBlock: E36, # of connection points: 2
#     Edge 33, Type (0, 0), BuildingBlock: E36, # of connection points: 2
#     Edge 34, Type (0, 0), BuildingBlock: E36, # of connection points: 2
#     Edge 35, Type (0, 0), BuildingBlock: E36, # of connection points: 2
#     Edge 36, Type (0, 0), BuildingBlock: E36, # of connection points: 2
#     Edge 37, Type (0, 0), BuildingBlock: E36, # of connection points: 2
#     Edge 38, Type (0, 0), BuildingBlock: E36, # of connection points: 2
#     Edge 39, Type (0, 0), BuildingBlock: E36, # of connection points: 2
#     Edge 40, Type (0, 0), BuildingBlock: E36, # of connection points: 2
#     Edge 41, Type (0, 0), BuildingBlock: E36, # of connection points: 2
#     Edge 42, Type (0, 0), BuildingBlock: E36, # of connection points: 2
#     Edge 43, Type (0, 0), BuildingBlock: E36, # of connection points: 2
#     Edge 44, Type (0, 0), BuildingBlock: E36, # of connection points: 2
#     Edge 45, Type (0, 0), BuildingBlock: E36, # of connection points: 2
#     Edge 46, Type (0, 0), BuildingBlock: E36, # of connection points: 2
#     Edge 47, Type (0, 0), BuildingBlock: E36, # of connection points: 2
# Relax obj value: 0.212
# Max RMSD: 0.077
# Mean RMSD: 0.077
data_pcb+N450+E36
_symmetry_space_group_name_H-M    P1
_symmetry_Int_Tables_number       1
_symmetry_cell_setting            triclinic
loop_
_symmetry_equiv_pos_as_xyz
'x, y, z'
_cell_length_a     56.299
_cell_length_b     57.509
_cell_length_c     57.509
_cell_angle_alpha  90.000
_cell_angle_beta   90.000
_cell_angle_gamma  90.000
loop_
_atom_site_label
_atom_site_type_symbol
_atom_site_fract_x
_atom_site_fract_y
_atom_site_fract_z
_atom_type_partial_charge
C0 C 0.82698 0.10094 0.83500 0.00000
C1 C 0.89301 0.17436 0.82875 0.00000
C2 C 0.79874 0.19231 0.80724 0.00000
C3 C 0.82430 0.17341 0.89650 0.00000
Ag4 Ag 0.83616 0.15855 0.84009 0.00000
N5 N 0.83060 0.12018 0.83818 0.00000
N6 N 0.87353 0.17103 0.83375 0.00000
N7 N 0.82634 0.17066 0.87713 0.00000
N8 N 0.81067 0.18065 0.81799 0.00000
C9 C 0.82698 0.16499 0.10094 0.00000
C10 C 0.89301 0.17123 0.17436 0.00000
C11 C 0.79874 0.19275 0.19231 0.00000
C12 C 0.82430 0.10348 0.17341 0.00000
Ag13 Ag 0.83616 0.15990 0.15855 0.00000
N14 N 0.83060 0.16180 0.12018 0.00000
N15 N 0.87353 0.16623 0.17103 0.00000
N16 N 0.82634 0.12286 0.17066 0.00000
N17 N 0.81068 0.18200 0.18065 0.00000
C18 C 0.82699 0.89908 0.16499 0.00000
C19 C 0.89301 0.82565 0.17123 0.00000
C20 C 0.79874 0.80770 0.19274 0.00000
C21 C 0.82431 0.82660 0.10348 0.00000
Ag22 Ag 0.83616 0.84146 0.15990 0.00000
N23 N 0.83060 0.87983 0.16180 0.00000
N24 N 0.87354 0.82898 0.16623 0.00000
N25 N 0.82634 0.82936 0.12286 0.00000
N26 N 0.81068 0.81937 0.18199 0.00000
C27 C 0.17302 0.83500 0.10094 0.00000
C28 C 0.10699 0.82876 0.17436 0.00000
C29 C 0.20126 0.80724 0.19232 0.00000
C30 C 0.17570 0.89651 0.17342 0.00000
Ag31 Ag 0.16384 0.84009 0.15856 0.00000
N32 N 0.16940 0.83819 0.12018 0.00000
N33 N 0.12647 0.83376 0.17103 0.00000
N34 N 0.17366 0.87713 0.17066 0.00000
N35 N 0.18933 0.81799 0.18065 0.00000
C36 C 0.17302 0.10093 0.16499 0.00000
C37 C 0.10699 0.17436 0.17123 0.00000
C38 C 0.20126 0.19231 0.19275 0.00000
C39 C 0.17569 0.17341 0.10348 0.00000
Ag40 Ag 0.16384 0.15855 0.15990 0.00000
N41 N 0.16940 0.12018 0.16180 0.00000
N42 N 0.12647 0.17103 0.16623 0.00000
N43 N 0.17366 0.17065 0.12286 0.00000
N44 N 0.18932 0.18064 0.18199 0.00000
C45 C 0.82698 0.83500 0.89908 0.00000
C46 C 0.89301 0.82876 0.82565 0.00000
C47 C 0.79874 0.80724 0.80770 0.00000
C48 C 0.82430 0.89651 0.82660 0.00000
Ag49 Ag 0.83616 0.84009 0.84146 0.00000
N50 N 0.83060 0.83819 0.87983 0.00000
N51 N 0.87353 0.83376 0.82898 0.00000
N52 N 0.82634 0.87713 0.82935 0.00000
N53 N 0.81068 0.81800 0.81937 0.00000
C54 C 0.17302 0.89907 0.83500 0.00000
C55 C 0.10699 0.82565 0.82876 0.00000
C56 C 0.20126 0.80770 0.80724 0.00000
C57 C 0.17570 0.82660 0.89651 0.00000
Ag58 Ag 0.16384 0.84146 0.84009 0.00000
N59 N 0.16940 0.87983 0.83819 0.00000
N60 N 0.12647 0.82898 0.83376 0.00000
N61 N 0.17366 0.82935 0.87713 0.00000
N62 N 0.18932 0.81936 0.81799 0.00000
C63 C 0.17301 0.16499 0.89908 0.00000
C64 C 0.10699 0.17123 0.82566 0.00000
C65 C 0.20126 0.19275 0.80770 0.00000
C66 C 0.17569 0.10348 0.82660 0.00000
Ag67 Ag 0.16384 0.15990 0.84146 0.00000
N68 N 0.16940 0.16180 0.87984 0.00000
N69 N 0.12646 0.16623 0.82899 0.00000
N70 N 0.17366 0.12286 0.82936 0.00000
N71 N 0.18932 0.18199 0.81937 0.00000
C72 C 0.67301 0.66499 0.39908 0.00000
C73 C 0.60699 0.67123 0.32565 0.00000
C74 C 0.70126 0.69275 0.30770 0.00000
C75 C 0.67569 0.60348 0.32660 0.00000
Ag76 Ag 0.66384 0.65990 0.34146 0.00000
N77 N 0.66940 0.66180 0.37983 0.00000
N78 N 0.62646 0.66623 0.32898 0.00000
N79 N 0.67366 0.62286 0.32936 0.00000
N80 N 0.68932 0.68199 0.31937 0.00000
C81 C 0.32698 0.60094 0.33500 0.00000
C82 C 0.39301 0.67436 0.32875 0.00000
C83 C 0.29874 0.69231 0.30724 0.00000
C84 C 0.32430 0.67341 0.39651 0.00000
Ag85 Ag 0.33616 0.65855 0.34009 0.00000
N86 N 0.33060 0.62018 0.33819 0.00000
N87 N 0.37353 0.67103 0.33376 0.00000
N88 N 0.32634 0.67066 0.37713 0.00000
N89 N 0.31067 0.68065 0.31799 0.00000
C90 C 0.32698 0.33500 0.39907 0.00000
C91 C 0.39301 0.32876 0.32565 0.00000
C92 C 0.29874 0.30724 0.30770 0.00000
C93 C 0.32431 0.39651 0.32660 0.00000
Ag94 Ag 0.33616 0.34009 0.34146 0.00000
N95 N 0.33060 0.33819 0.37983 0.00000
N96 N 0.37353 0.33376 0.32898 0.00000
N97 N 0.32634 0.37713 0.32935 0.00000
N98 N 0.31068 0.31800 0.31936 0.00000
C99 C 0.67302 0.60094 0.66499 0.00000
C100 C 0.60699 0.67436 0.67123 0.00000
C101 C 0.70126 0.69231 0.69275 0.00000
C102 C 0.67570 0.67341 0.60348 0.00000
Ag103 Ag 0.66384 0.65855 0.65990 0.00000
N104 N 0.66940 0.62018 0.66180 0.00000
N105 N 0.62647 0.67103 0.66623 0.00000
N106 N 0.67366 0.67066 0.62286 0.00000
N107 N 0.68932 0.68065 0.68200 0.00000
C108 C 0.32698 0.66499 0.60093 0.00000
C109 C 0.39301 0.67123 0.67436 0.00000
C110 C 0.29874 0.69275 0.69231 0.00000
C111 C 0.32430 0.60348 0.67341 0.00000
Ag112 Ag 0.33616 0.65990 0.65855 0.00000
N113 N 0.33060 0.66180 0.62018 0.00000
N114 N 0.37353 0.66623 0.67103 0.00000
N115 N 0.32634 0.62286 0.67066 0.00000
N116 N 0.31068 0.68199 0.68064 0.00000
C117 C 0.32698 0.39908 0.66499 0.00000
C118 C 0.39301 0.32566 0.67123 0.00000
C119 C 0.29874 0.30770 0.69275 0.00000
C120 C 0.32431 0.32660 0.60348 0.00000
Ag121 Ag 0.33616 0.34146 0.65990 0.00000
N122 N 0.33060 0.37984 0.66180 0.00000
N123 N 0.37354 0.32899 0.66623 0.00000
N124 N 0.32634 0.32936 0.62286 0.00000
N125 N 0.31068 0.31937 0.68199 0.00000
C126 C 0.67302 0.33500 0.60094 0.00000
C127 C 0.60699 0.32875 0.67436 0.00000
C128 C 0.70126 0.30724 0.69231 0.00000
C129 C 0.67570 0.39650 0.67341 0.00000
Ag130 Ag 0.66384 0.34009 0.65855 0.00000
N131 N 0.66940 0.33818 0.62018 0.00000
N132 N 0.62647 0.33375 0.67103 0.00000
N133 N 0.67366 0.37713 0.67066 0.00000
N134 N 0.68933 0.31799 0.68065 0.00000
C135 C 0.67302 0.39907 0.33500 0.00000
C136 C 0.60699 0.32565 0.32876 0.00000
C137 C 0.70126 0.30770 0.30724 0.00000
C138 C 0.67570 0.32660 0.39651 0.00000
Ag139 Ag 0.66384 0.34146 0.34009 0.00000
N140 N 0.66940 0.37983 0.33819 0.00000
N141 N 0.62647 0.32898 0.33376 0.00000
N142 N 0.67366 0.32935 0.37713 0.00000
N143 N 0.68932 0.31937 0.31800 0.00000
C144 C 0.74816 0.28374 0.71807 0.00000
C145 C 0.73556 0.26832 0.73615 0.00000
C146 C 0.70830 0.26889 0.73825 0.00000
C147 C 0.69363 0.28487 0.72227 0.00000
C148 C 0.70622 0.30029 0.70419 0.00000
C149 C 0.73349 0.29972 0.70209 0.00000
C150 C 0.75020 0.25232 0.75215 0.00000
C151 C 0.76478 0.23631 0.76817 0.00000
C152 C 0.77933 0.22027 0.78420 0.00000
C153 C 0.79385 0.20423 0.80026 0.00000
H154 H 0.76834 0.28332 0.71651 0.00000
H155 H 0.69897 0.25748 0.75164 0.00000
H156 H 0.67345 0.28528 0.72383 0.00000
H157 H 0.74281 0.31114 0.68871 0.00000
C158 C 0.74813 0.27898 0.28667 0.00000
C159 C 0.73556 0.26382 0.26834 0.00000
C160 C 0.70833 0.26466 0.26600 0.00000
C161 C 0.69366 0.28065 0.28197 0.00000
C162 C 0.70623 0.29581 0.30029 0.00000
C163 C 0.73346 0.29497 0.30264 0.00000
C164 C 0.75019 0.24782 0.25235 0.00000
C165 C 0.76478 0.23180 0.23634 0.00000
C166 C 0.77933 0.21577 0.22029 0.00000
C167 C 0.79385 0.19973 0.20424 0.00000
H168 H 0.76829 0.27836 0.28840 0.00000
H169 H 0.69901 0.25344 0.25244 0.00000
H170 H 0.67350 0.28127 0.28022 0.00000
H171 H 0.74277 0.30619 0.31621 0.00000
C172 C 0.79098 0.75808 0.22662 0.00000
C173 C 0.76476 0.76366 0.23177 0.00000
C174 C 0.75308 0.78529 0.22090 0.00000
C175 C 0.76761 0.80135 0.20488 0.00000
C176 C 0.79383 0.79577 0.19972 0.00000
C177 C 0.80552 0.77414 0.21059 0.00000
C178 C 0.75019 0.74763 0.24779 0.00000
C179 C 0.73557 0.73163 0.26380 0.00000
C180 C 0.72092 0.71565 0.27980 0.00000
C181 C 0.70624 0.69969 0.29580 0.00000
H182 H 0.79964 0.74206 0.23466 0.00000
H183 H 0.73366 0.78943 0.22472 0.00000
H184 H 0.75895 0.81736 0.19683 0.00000
H185 H 0.82494 0.77001 0.20678 0.00000
C186 C 0.24623 0.79139 0.22740 0.00000
C187 C 0.23554 0.76838 0.23623 0.00000
C188 C 0.21019 0.76134 0.22905 0.00000
C189 C 0.19553 0.77730 0.21304 0.00000
C190 C 0.20622 0.80030 0.20421 0.00000
C191 C 0.23157 0.80735 0.21139 0.00000
C192 C 0.25017 0.75240 0.25224 0.00000
C193 C 0.26476 0.73637 0.26825 0.00000
C194 C 0.27932 0.72032 0.28426 0.00000
C195 C 0.29385 0.70424 0.30028 0.00000
H196 H 0.26500 0.79660 0.23271 0.00000
H197 H 0.20227 0.74431 0.23559 0.00000
H198 H 0.17677 0.77208 0.20773 0.00000
H199 H 0.23948 0.82438 0.20485 0.00000
C200 C 0.28803 0.25932 0.27471 0.00000
C201 C 0.26473 0.26811 0.26380 0.00000
C202 C 0.25598 0.29297 0.26889 0.00000
C203 C 0.27053 0.30903 0.28488 0.00000
C204 C 0.29383 0.30025 0.29580 0.00000
C205 C 0.30258 0.27539 0.29072 0.00000
C206 C 0.25015 0.25208 0.24779 0.00000
C207 C 0.23554 0.23608 0.23178 0.00000
C208 C 0.22090 0.22012 0.21575 0.00000
C209 C 0.20623 0.20418 0.19972 0.00000
H210 H 0.29451 0.24092 0.27095 0.00000
H211 H 0.23873 0.29948 0.26081 0.00000
H212 H 0.26405 0.32743 0.28864 0.00000
H213 H 0.31983 0.26888 0.29880 0.00000
C214 C 0.75179 0.78586 0.77985 0.00000
C215 C 0.76444 0.76834 0.76383 0.00000
C216 C 0.79174 0.76680 0.76381 0.00000
C217 C 0.80641 0.78277 0.77979 0.00000
C218 C 0.79377 0.80029 0.79581 0.00000
C219 C 0.76646 0.80184 0.79584 0.00000
C220 C 0.74980 0.75234 0.74783 0.00000
C221 C 0.73522 0.73633 0.73181 0.00000
C222 C 0.72067 0.72029 0.71578 0.00000
C223 C 0.70615 0.70423 0.69973 0.00000
H224 H 0.73158 0.78700 0.77987 0.00000
H225 H 0.80111 0.75383 0.75194 0.00000
H226 H 0.82662 0.78162 0.77977 0.00000
H227 H 0.75710 0.81481 0.80770 0.00000
C228 C 0.25525 0.72568 0.71163 0.00000
C229 C 0.26446 0.73175 0.73610 0.00000
C230 C 0.28833 0.72181 0.74461 0.00000
C231 C 0.30298 0.70579 0.72865 0.00000
C232 C 0.29378 0.69972 0.70418 0.00000
C233 C 0.26991 0.70966 0.69567 0.00000
C234 C 0.24983 0.74777 0.75208 0.00000
C235 C 0.23525 0.76378 0.76811 0.00000
C236 C 0.22069 0.77979 0.78416 0.00000
C237 C 0.20616 0.79580 0.80024 0.00000
H238 H 0.23759 0.73304 0.70533 0.00000
H239 H 0.29515 0.72630 0.76272 0.00000
H240 H 0.32065 0.69844 0.73496 0.00000
H241 H 0.26310 0.70516 0.67756 0.00000
C242 C 0.21232 0.22028 0.75463 0.00000
C243 C 0.23527 0.23172 0.76363 0.00000
C244 C 0.24367 0.22716 0.78870 0.00000
C245 C 0.22912 0.21116 0.80477 0.00000
C246 C 0.20617 0.19971 0.79577 0.00000
C247 C 0.19777 0.20427 0.77070 0.00000
C248 C 0.24984 0.24773 0.74759 0.00000
C249 C 0.26445 0.26374 0.73160 0.00000
C250 C 0.27910 0.27976 0.71563 0.00000
C251 C 0.29377 0.29579 0.69968 0.00000
H252 H 0.20610 0.22365 0.73607 0.00000
H253 H 0.26065 0.23563 0.79538 0.00000
H254 H 0.23535 0.20778 0.82333 0.00000
H255 H 0.18078 0.19581 0.76403 0.00000
C256 C 0.79861 0.04061 0.82938 0.00000
C257 C 0.82208 0.02686 0.82935 0.00000
C258 C 0.84597 0.03988 0.82965 0.00000
C259 C 0.84641 0.06665 0.82999 0.00000
C260 C 0.82294 0.08040 0.83001 0.00000
C261 C 0.79904 0.06738 0.82971 0.00000
C262 C 0.82168 0.00010 0.82903 0.00000
C263 C 0.82135 0.97331 0.82870 0.00000
C264 C 0.82105 0.94654 0.82838 0.00000
C265 C 0.82080 0.91976 0.82805 0.00000
H266 H 0.78092 0.03097 0.82916 0.00000
H267 H 0.86335 0.02971 0.82963 0.00000
H268 H 0.86410 0.07629 0.83022 0.00000
H269 H 0.78167 0.07756 0.82973 0.00000
C270 C 0.04105 0.15690 0.18986 0.00000
C271 C 0.02735 0.17165 0.17197 0.00000
C272 C 0.04101 0.18640 0.15407 0.00000
C273 C 0.06836 0.18641 0.15404 0.00000
C274 C 0.08206 0.17167 0.17192 0.00000
C275 C 0.06841 0.15691 0.18982 0.00000
C276 C 0.00010 0.17165 0.17197 0.00000
C277 C 0.97265 0.17170 0.17193 0.00000
C278 C 0.94529 0.17177 0.17184 0.00000
C279 C 0.91794 0.17186 0.17174 0.00000
H280 H 0.03094 0.14598 0.20311 0.00000
H281 H 0.03088 0.19732 0.14084 0.00000
H282 H 0.07846 0.19733 0.14078 0.00000
H283 H 0.07855 0.14600 0.20306 0.00000
C284 C 0.84629 0.96001 0.17044 0.00000
C285 C 0.82247 0.97315 0.17062 0.00000
C286 C 0.79893 0.95952 0.17048 0.00000
C287 C 0.79920 0.93275 0.17015 0.00000
C288 C 0.82303 0.91960 0.16997 0.00000
C289 C 0.84657 0.93323 0.17011 0.00000
C290 C 0.82215 0.99990 0.17095 0.00000
C291 C 0.82177 0.02670 0.17129 0.00000
C292 C 0.82135 0.05347 0.17162 0.00000
C293 C 0.82090 0.08025 0.17196 0.00000
H294 H 0.86372 0.97009 0.17055 0.00000
H295 H 0.78128 0.96925 0.17061 0.00000
H296 H 0.78177 0.92266 0.17005 0.00000
H297 H 0.86421 0.92350 0.16998 0.00000
C298 C 0.95890 0.83947 0.15136 0.00000
C299 C 0.97265 0.82834 0.17166 0.00000
C300 C 0.95904 0.81721 0.19205 0.00000
C301 C 0.93169 0.81721 0.19215 0.00000
C302 C 0.91794 0.82833 0.17185 0.00000
C303 C 0.93154 0.83946 0.15146 0.00000
C304 C 0.00010 0.82832 0.17160 0.00000
C305 C 0.02735 0.82828 0.17158 0.00000
C306 C 0.05471 0.82821 0.17160 0.00000
C307 C 0.08206 0.82812 0.17166 0.00000
H308 H 0.96897 0.84770 0.13627 0.00000
H309 H 0.96921 0.80898 0.20708 0.00000
H310 H 0.92162 0.80896 0.20724 0.00000
H311 H 0.92137 0.84770 0.13644 0.00000
C312 C 0.15371 0.03999 0.17006 0.00000
C313 C 0.17754 0.02685 0.17062 0.00000
C314 C 0.20107 0.04049 0.17086 0.00000
C315 C 0.20079 0.06726 0.17053 0.00000
C316 C 0.17698 0.08040 0.16997 0.00000
C317 C 0.15344 0.06677 0.16974 0.00000
C318 C 0.17785 0.00010 0.17095 0.00000
C319 C 0.17823 0.97330 0.17128 0.00000
C320 C 0.17865 0.94653 0.17162 0.00000
C321 C 0.17911 0.91975 0.17196 0.00000
H322 H 0.13628 0.02990 0.16989 0.00000
H323 H 0.21871 0.03076 0.17127 0.00000
H324 H 0.21823 0.07734 0.17071 0.00000
H325 H 0.13580 0.07649 0.16932 0.00000
C326 C 0.95886 0.84738 0.81502 0.00000
C327 C 0.97265 0.82833 0.82814 0.00000
C328 C 0.95907 0.80919 0.84133 0.00000
C329 C 0.93172 0.80909 0.84141 0.00000
C330 C 0.91794 0.82813 0.82829 0.00000
C331 C 0.93151 0.84728 0.81510 0.00000
C332 C 0.99990 0.82840 0.82808 0.00000
C333 C 0.02735 0.82842 0.82806 0.00000
C334 C 0.05470 0.82840 0.82806 0.00000
C335 C 0.08206 0.82835 0.82807 0.00000
H336 H 0.96891 0.86155 0.80525 0.00000
H337 H 0.96927 0.79509 0.85105 0.00000
H338 H 0.92168 0.79492 0.85117 0.00000
H339 H 0.92131 0.86138 0.80539 0.00000
C340 C 0.15478 0.82855 0.95955 0.00000
C341 C 0.17825 0.82870 0.97330 0.00000
C342 C 0.20214 0.82852 0.96028 0.00000
C343 C 0.20258 0.82820 0.93351 0.00000
C344 C 0.17911 0.82805 0.91976 0.00000
C345 C 0.15521 0.82823 0.93278 0.00000
C346 C 0.17785 0.82903 0.00010 0.00000
C347 C 0.17752 0.82935 0.02685 0.00000
C348 C 0.17722 0.82969 0.05362 0.00000
C349 C 0.17697 0.83002 0.08040 0.00000
H350 H 0.13709 0.82868 0.96919 0.00000
H351 H 0.21952 0.82863 0.97045 0.00000
H352 H 0.22027 0.82808 0.92387 0.00000
H353 H 0.13784 0.82811 0.92260 0.00000
C354 C 0.79861 0.17033 0.04060 0.00000
C355 C 0.82208 0.17064 0.02685 0.00000
C356 C 0.84597 0.17062 0.03988 0.00000
C357 C 0.84641 0.17028 0.06665 0.00000
C358 C 0.82294 0.16997 0.08040 0.00000
C359 C 0.79905 0.17000 0.06738 0.00000
C360 C 0.82168 0.17097 0.00010 0.00000
C361 C 0.82134 0.17130 0.97331 0.00000
C362 C 0.82105 0.17163 0.94653 0.00000
C363 C 0.82080 0.17196 0.91976 0.00000
H364 H 0.78092 0.17035 0.03096 0.00000
H365 H 0.86335 0.17086 0.02971 0.00000
H366 H 0.86410 0.17026 0.07629 0.00000
H367 H 0.78167 0.16977 0.07755 0.00000
C368 C 0.79947 0.83575 0.95948 0.00000
C369 C 0.82209 0.82941 0.97314 0.00000
C370 C 0.84512 0.82338 0.96003 0.00000
C371 C 0.84556 0.82370 0.93326 0.00000
C372 C 0.82295 0.83003 0.91960 0.00000
C373 C 0.79990 0.83606 0.93271 0.00000
C374 C 0.82169 0.82909 0.99990 0.00000
C375 C 0.82135 0.82876 0.02669 0.00000
C376 C 0.82106 0.82842 0.05346 0.00000
C377 C 0.82080 0.82807 0.08024 0.00000
H378 H 0.78241 0.84021 0.96919 0.00000
H379 H 0.86187 0.81869 0.97014 0.00000
H380 H 0.86262 0.81924 0.92356 0.00000
H381 H 0.78316 0.84074 0.92259 0.00000
C382 C 0.20139 0.17044 0.95940 0.00000
C383 C 0.17792 0.17064 0.97315 0.00000
C384 C 0.15402 0.17050 0.96012 0.00000
C385 C 0.15359 0.17016 0.93335 0.00000
C386 C 0.17705 0.16997 0.91960 0.00000
C387 C 0.20095 0.17011 0.93262 0.00000
C388 C 0.17831 0.17097 0.99990 0.00000
C389 C 0.17865 0.17130 0.02669 0.00000
C390 C 0.17894 0.17163 0.05347 0.00000
C391 C 0.17920 0.17196 0.08025 0.00000
H392 H 0.21908 0.17055 0.96904 0.00000
H393 H 0.13665 0.17065 0.97029 0.00000
H394 H 0.13589 0.17005 0.92371 0.00000
H395 H 0.21833 0.16997 0.92245 0.00000
C396 C 0.65478 0.67145 0.54045 0.00000
C397 C 0.67825 0.67130 0.52670 0.00000
C398 C 0.70214 0.67148 0.53973 0.00000
C399 C 0.70258 0.67181 0.56650 0.00000
C400 C 0.67911 0.67196 0.58025 0.00000
C401 C 0.65521 0.67177 0.56722 0.00000
C402 C 0.67785 0.67097 0.49993 0.00000
C403 C 0.67751 0.67064 0.47315 0.00000
C404 C 0.67722 0.67030 0.44638 0.00000
C405 C 0.67697 0.66997 0.41960 0.00000
H406 H 0.63708 0.67131 0.53081 0.00000
H407 H 0.71952 0.67138 0.52955 0.00000
H408 H 0.72027 0.67194 0.57613 0.00000
H409 H 0.63784 0.67189 0.57740 0.00000
C410 C 0.29755 0.67070 0.46015 0.00000
C411 C 0.32137 0.67128 0.47331 0.00000
C412 C 0.34489 0.67220 0.45968 0.00000
C413 C 0.34462 0.67254 0.43291 0.00000
C414 C 0.32081 0.67196 0.41975 0.00000
C415 C 0.29727 0.67104 0.43337 0.00000
C416 C 0.32168 0.67095 0.50008 0.00000
C417 C 0.32206 0.67062 0.52685 0.00000
C418 C 0.32248 0.67030 0.55362 0.00000
C419 C 0.32294 0.66997 0.58040 0.00000
H420 H 0.28013 0.67002 0.47023 0.00000
H421 H 0.36253 0.67263 0.46942 0.00000
H422 H 0.36204 0.67323 0.42284 0.00000
H423 H 0.27965 0.67060 0.42364 0.00000
C424 C 0.29861 0.32923 0.45939 0.00000
C425 C 0.32208 0.32936 0.47314 0.00000
C426 C 0.34597 0.32981 0.46012 0.00000
C427 C 0.34641 0.33014 0.43335 0.00000
C428 C 0.32295 0.33002 0.41960 0.00000
C429 C 0.29905 0.32957 0.43262 0.00000
C430 C 0.32169 0.32903 0.49992 0.00000
C431 C 0.32135 0.32870 0.52669 0.00000
C432 C 0.32106 0.32838 0.55346 0.00000
C433 C 0.32080 0.32805 0.58024 0.00000
H434 H 0.28092 0.32890 0.46903 0.00000
H435 H 0.36335 0.32989 0.47030 0.00000
H436 H 0.36410 0.33048 0.42372 0.00000
H437 H 0.28168 0.32947 0.42244 0.00000
C438 C 0.54113 0.68415 0.65207 0.00000
C439 C 0.52735 0.67186 0.67166 0.00000
C440 C 0.54093 0.65949 0.69134 0.00000
C441 C 0.56828 0.65942 0.69144 0.00000
C442 C 0.58206 0.67172 0.67186 0.00000
C443 C 0.56849 0.68408 0.65217 0.00000
C444 C 0.50000 0.67191 0.67160 0.00000
C445 C 0.47265 0.67193 0.67158 0.00000
C446 C 0.44530 0.67193 0.67160 0.00000
C447 C 0.41794 0.67191 0.67165 0.00000
H448 H 0.53108 0.69331 0.63750 0.00000
H449 H 0.53074 0.65038 0.70585 0.00000
H450 H 0.57833 0.65027 0.70602 0.00000
H451 H 0.57869 0.69318 0.63767 0.00000
C452 C 0.34522 0.54045 0.67137 0.00000
C453 C 0.32175 0.52670 0.67130 0.00000
C454 C 0.29786 0.53973 0.67156 0.00000
C455 C 0.29742 0.56649 0.67188 0.00000
C456 C 0.32089 0.58025 0.67196 0.00000
C457 C 0.34479 0.56722 0.67170 0.00000
C458 C 0.32215 0.49993 0.67097 0.00000
C459 C 0.32249 0.47315 0.67064 0.00000
C460 C 0.32278 0.44638 0.67030 0.00000
C461 C 0.32303 0.41960 0.66997 0.00000
H462 H 0.36292 0.53081 0.67118 0.00000
H463 H 0.28048 0.52955 0.67151 0.00000
H464 H 0.27973 0.57613 0.67207 0.00000
H465 H 0.36216 0.57740 0.67176 0.00000
C466 C 0.45895 0.35049 0.67896 0.00000
C467 C 0.47265 0.32842 0.67189 0.00000
C468 C 0.45899 0.30632 0.66482 0.00000
C469 C 0.43164 0.30629 0.66483 0.00000
C470 C 0.41794 0.32835 0.67190 0.00000
C471 C 0.43159 0.35045 0.67897 0.00000
C472 C 0.50000 0.32842 0.67187 0.00000
C473 C 0.52735 0.32837 0.67183 0.00000
C474 C 0.55471 0.32827 0.67178 0.00000
C475 C 0.58206 0.32814 0.67171 0.00000
H476 H 0.46906 0.36685 0.68420 0.00000
H477 H 0.46913 0.28998 0.65959 0.00000
H478 H 0.42154 0.28993 0.65959 0.00000
H479 H 0.42145 0.36679 0.68421 0.00000
C480 C 0.70138 0.54060 0.66991 0.00000
C481 C 0.67792 0.52685 0.67064 0.00000
C482 C 0.65403 0.53989 0.67103 0.00000
C483 C 0.65360 0.56666 0.67070 0.00000
C484 C 0.67706 0.58040 0.66997 0.00000
C485 C 0.70095 0.56737 0.66958 0.00000
C486 C 0.67832 0.50008 0.67097 0.00000
C487 C 0.67866 0.47331 0.67130 0.00000
C488 C 0.67895 0.44653 0.67163 0.00000
C489 C 0.67920 0.41975 0.67196 0.00000
H490 H 0.71907 0.53095 0.66961 0.00000
H491 H 0.63666 0.52972 0.67158 0.00000
H492 H 0.63591 0.57630 0.67099 0.00000
H493 H 0.71832 0.57754 0.66904 0.00000
C494 C 0.54105 0.34702 0.31427 0.00000
C495 C 0.52735 0.32839 0.32806 0.00000
C496 C 0.54102 0.30974 0.34185 0.00000
C497 C 0.56837 0.30972 0.34186 0.00000
C498 C 0.58206 0.32834 0.32808 0.00000
C499 C 0.56841 0.34699 0.31428 0.00000
C500 C 0.50000 0.32839 0.32807 0.00000
C501 C 0.47265 0.32833 0.32811 0.00000
C502 C 0.44529 0.32825 0.32819 0.00000
C503 C 0.41794 0.32814 0.32828 0.00000
H504 H 0.53094 0.36083 0.30405 0.00000
H505 H 0.53088 0.29594 0.35205 0.00000
H506 H 0.57847 0.29591 0.35208 0.00000
H507 H 0.57854 0.36078 0.30407 0.00000
C508 C 0.70139 0.45939 0.32955 0.00000
C509 C 0.67792 0.47314 0.32936 0.00000
C510 C 0.65403 0.46012 0.32950 0.00000
C511 C 0.65359 0.43335 0.32983 0.00000
C512 C 0.67705 0.41960 0.33002 0.00000
C513 C 0.70095 0.43262 0.32988 0.00000
C514 C 0.67831 0.49992 0.32903 0.00000
C515 C 0.67865 0.52669 0.32870 0.00000
C516 C 0.67894 0.55346 0.32838 0.00000
C517 C 0.67920 0.58024 0.32805 0.00000
H518 H 0.71908 0.46904 0.32944 0.00000
H519 H 0.63665 0.47029 0.32935 0.00000
H520 H 0.63590 0.42371 0.32994 0.00000
H521 H 0.71833 0.42244 0.33002 0.00000
C522 C 0.45888 0.66472 0.35041 0.00000
C523 C 0.47264 0.67170 0.32835 0.00000
C524 C 0.45905 0.67867 0.30619 0.00000
C525 C 0.43170 0.67866 0.30608 0.00000
C526 C 0.41794 0.67169 0.32814 0.00000
C527 C 0.43153 0.66472 0.35030 0.00000
C528 C 0.50000 0.67172 0.32842 0.00000
C529 C 0.52735 0.67175 0.32844 0.00000
C530 C 0.55470 0.67181 0.32842 0.00000
C531 C 0.58206 0.67187 0.32836 0.00000
H532 H 0.46895 0.65956 0.36682 0.00000
H533 H 0.46923 0.68383 0.28985 0.00000
H534 H 0.42164 0.68383 0.28967 0.00000
H535 H 0.42134 0.65955 0.36663 0.00000
C536 C 0.34522 0.45955 0.32860 0.00000
C537 C 0.32175 0.47330 0.32870 0.00000
C538 C 0.29786 0.46028 0.32848 0.00000
C539 C 0.29742 0.43351 0.32816 0.00000
C540 C 0.32089 0.41976 0.32805 0.00000
C541 C 0.34479 0.43278 0.32827 0.00000
C542 C 0.32215 0.50008 0.32903 0.00000
C543 C 0.32248 0.52685 0.32935 0.00000
C544 C 0.32278 0.55362 0.32969 0.00000
C545 C 0.32303 0.58040 0.33002 0.00000
H546 H 0.36291 0.46919 0.32876 0.00000
H547 H 0.28048 0.47045 0.32855 0.00000
H548 H 0.27973 0.42387 0.32800 0.00000
H549 H 0.36216 0.42260 0.32819 0.00000
C550 C 0.70139 0.32965 0.54060 0.00000
C551 C 0.67792 0.32936 0.52686 0.00000
C552 C 0.65403 0.32939 0.53989 0.00000
C553 C 0.65359 0.32972 0.56666 0.00000
C554 C 0.67706 0.33002 0.58040 0.00000
C555 C 0.70096 0.32998 0.56738 0.00000
C556 C 0.67832 0.32903 0.50008 0.00000
C557 C 0.67865 0.32870 0.47331 0.00000
C558 C 0.67895 0.32838 0.44654 0.00000
C559 C 0.67920 0.32805 0.41976 0.00000
H560 H 0.71908 0.32963 0.53096 0.00000
H561 H 0.63665 0.32916 0.52971 0.00000
H562 H 0.63590 0.32975 0.57629 0.00000
H563 H 0.71833 0.33020 0.57755 0.00000
C564 C 0.15478 0.04044 0.82844 0.00000
C565 C 0.17825 0.02670 0.82870 0.00000
C566 C 0.20214 0.03973 0.82864 0.00000
C567 C 0.20257 0.06649 0.82832 0.00000
C568 C 0.17911 0.08024 0.82806 0.00000
C569 C 0.15521 0.06722 0.82812 0.00000
C570 C 0.17785 0.99990 0.82903 0.00000
C571 C 0.17751 0.97315 0.82935 0.00000
C572 C 0.17722 0.94638 0.82969 0.00000
C573 C 0.17697 0.91960 0.83002 0.00000
H574 H 0.13708 0.03080 0.82849 0.00000
H575 H 0.21952 0.02955 0.82882 0.00000
H576 H 0.22027 0.07613 0.82827 0.00000
H577 H 0.13784 0.07739 0.82792 0.00000
C578 C 0.95888 0.16853 0.85127 0.00000
C579 C 0.97264 0.17173 0.82836 0.00000
C580 C 0.95905 0.17491 0.80534 0.00000
C581 C 0.93170 0.17489 0.80523 0.00000
C582 C 0.91793 0.17169 0.82814 0.00000
C583 C 0.93152 0.16851 0.85116 0.00000
C584 C 0.99990 0.17175 0.82843 0.00000
C585 C 0.02735 0.17179 0.82845 0.00000
C586 C 0.05470 0.17183 0.82842 0.00000
C587 C 0.08206 0.17188 0.82836 0.00000
H588 H 0.96893 0.16617 0.86831 0.00000
H589 H 0.96924 0.17727 0.78837 0.00000
H590 H 0.92165 0.17725 0.78818 0.00000
H591 H 0.92133 0.16614 0.86812 0.00000
loop_
_geom_bond_atom_site_label_1
_geom_bond_atom_site_label_2
_geom_bond_distance
_geom_bond_site_symmetry_2
_ccdc_geom_bond_type
C0 N5 1.140 . T
C1 N6 1.150 . T
C2 N8 1.133 . T
C3 N7 1.131 . T
Ag4 N5 2.232 . S
Ag4 N6 2.253 . S
Ag4 N7 2.308 . S
Ag4 N8 2.299 . S
C9 N14 1.140 . T
C10 N15 1.150 . T
C11 N17 1.133 . T
C12 N16 1.131 . T
Ag13 N14 2.232 . S
Ag13 N15 2.253 . S
Ag13 N16 2.308 . S
Ag13 N17 2.299 . S
C18 N23 1.140 . T
C19 N24 1.150 . T
C20 N26 1.133 . T
C21 N25 1.131 . T
Ag22 N23 2.232 . S
Ag22 N24 2.253 . S
Ag22 N25 2.308 . S
Ag22 N26 2.299 . S
C27 N32 1.140 . T
C28 N33 1.150 . T
C29 N35 1.133 . T
C30 N34 1.131 . T
Ag31 N32 2.232 . S
Ag31 N33 2.253 . S
Ag31 N34 2.308 . S
Ag31 N35 2.299 . S
C36 N41 1.140 . T
C37 N42 1.150 . T
C38 N44 1.133 . T
C39 N43 1.131 . T
Ag40 N41 2.232 . S
Ag40 N42 2.253 . S
Ag40 N43 2.308 . S
Ag40 N44 2.299 . S
C45 N50 1.140 . T
C46 N51 1.150 . T
C47 N53 1.133 . T
C48 N52 1.131 . T
Ag49 N50 2.232 . S
Ag49 N51 2.253 . S
Ag49 N52 2.308 . S
Ag49 N53 2.299 . S
C54 N59 1.140 . T
C55 N60 1.150 . T
C56 N62 1.133 . T
C57 N61 1.131 . T
Ag58 N59 2.232 . S
Ag58 N60 2.253 . S
Ag58 N61 2.308 . S
Ag58 N62 2.299 . S
C63 N68 1.140 . T
C64 N69 1.150 . T
C65 N71 1.133 . T
C66 N70 1.131 . T
Ag67 N68 2.232 . S
Ag67 N69 2.253 . S
Ag67 N70 2.308 . S
Ag67 N71 2.299 . S
C72 N77 1.140 . T
C73 N78 1.150 . T
C74 N80 1.133 . T
C75 N79 1.131 . T
Ag76 N77 2.232 . S
Ag76 N78 2.253 . S
Ag76 N79 2.308 . S
Ag76 N80 2.299 . S
C81 N86 1.140 . T
C82 N87 1.150 . T
C83 N89 1.133 . T
C84 N88 1.131 . T
Ag85 N86 2.232 . S
Ag85 N87 2.253 . S
Ag85 N88 2.308 . S
Ag85 N89 2.299 . S
C90 N95 1.140 . T
C91 N96 1.150 . T
C92 N98 1.133 . T
C93 N97 1.131 . T
Ag94 N95 2.232 . S
Ag94 N96 2.253 . S
Ag94 N97 2.308 . S
Ag94 N98 2.299 . S
C99 N104 1.140 . T
C100 N105 1.150 . T
C101 N107 1.133 . T
C102 N106 1.131 . T
Ag103 N104 2.232 . S
Ag103 N105 2.253 . S
Ag103 N106 2.308 . S
Ag103 N107 2.299 . S
C108 N113 1.140 . T
C109 N114 1.150 . T
C110 N116 1.133 . T
C111 N115 1.131 . T
Ag112 N113 2.232 . S
Ag112 N114 2.253 . S
Ag112 N115 2.308 . S
Ag112 N116 2.299 . S
C117 N122 1.140 . T
C118 N123 1.150 . T
C119 N125 1.133 . T
C120 N124 1.131 . T
Ag121 N122 2.232 . S
Ag121 N123 2.253 . S
Ag121 N124 2.308 . S
Ag121 N125 2.299 . S
C126 N131 1.140 . T
C127 N132 1.150 . T
C128 N134 1.133 . T
C129 N133 1.131 . T
Ag130 N131 2.232 . S
Ag130 N132 2.253 . S
Ag130 N133 2.308 . S
Ag130 N134 2.299 . S
C135 N140 1.140 . T
C136 N141 1.150 . T
C137 N143 1.133 . T
C138 N142 1.131 . T
Ag139 N140 2.232 . S
Ag139 N141 2.253 . S
Ag139 N142 2.308 . S
Ag139 N143 2.299 . S
C144 C145 1.540 . A
C144 C149 1.540 . A
C144 H154 1.140 . S
C145 C146 1.540 . A
C145 C150 1.540 . S
C146 C147 1.540 . A
C146 H155 1.140 . S
C147 C148 1.540 . A
C147 H156 1.140 . S
C148 C149 1.540 . A
C149 H157 1.140 . S
C150 C151 1.540 . T
C151 C152 1.540 . S
C152 C153 1.540 . T
C158 C159 1.540 . A
C158 C163 1.540 . A
C158 H168 1.140 . S
C159 C160 1.540 . A
C159 C164 1.540 . S
C160 C161 1.540 . A
C160 H169 1.140 . S
C161 C162 1.540 . A
C161 H170 1.140 . S
C162 C163 1.540 . A
C163 H171 1.140 . S
C164 C165 1.540 . T
C165 C166 1.540 . S
C166 C167 1.540 . T
C172 C173 1.540 . A
C172 C177 1.540 . A
C172 H182 1.140 . S
C173 C174 1.540 . A
C173 C178 1.540 . S
C174 C175 1.540 . A
C174 H183 1.140 . S
C175 C176 1.540 . A
C175 H184 1.140 . S
C176 C177 1.540 . A
C177 H185 1.140 . S
C178 C179 1.540 . T
C179 C180 1.540 . S
C180 C181 1.540 . T
C186 C187 1.540 . A
C186 C191 1.540 . A
C186 H196 1.140 . S
C187 C188 1.540 . A
C187 C192 1.540 . S
C188 C189 1.540 . A
C188 H197 1.140 . S
C189 C190 1.540 . A
C189 H198 1.140 . S
C190 C191 1.540 . A
C191 H199 1.140 . S
C192 C193 1.540 . T
C193 C194 1.540 . S
C194 C195 1.540 . T
C200 C201 1.540 . A
C200 C205 1.540 . A
C200 H210 1.140 . S
C201 C202 1.540 . A
C201 C206 1.540 . S
C202 C203 1.540 . A
C202 H211 1.140 . S
C203 C204 1.540 . A
C203 H212 1.140 . S
C204 C205 1.540 . A
C205 H213 1.140 . S
C206 C207 1.540 . T
C207 C208 1.540 . S
C208 C209 1.540 . T
C214 C215 1.540 . A
C214 C219 1.540 . A
C214 H224 1.140 . S
C215 C216 1.540 . A
C215 C220 1.540 . S
C216 C217 1.540 . A
C216 H225 1.140 . S
C217 C218 1.540 . A
C217 H226 1.140 . S
C218 C219 1.540 . A
C219 H227 1.140 . S
C220 C221 1.540 . T
C221 C222 1.540 . S
C222 C223 1.540 . T
C228 C229 1.540 . A
C228 C233 1.540 . A
C228 H238 1.140 . S
C229 C230 1.540 . A
C229 C234 1.540 . S
C230 C231 1.540 . A
C230 H239 1.140 . S
C231 C232 1.540 . A
C231 H240 1.140 . S
C232 C233 1.540 . A
C233 H241 1.140 . S
C234 C235 1.540 . T
C235 C236 1.540 . S
C236 C237 1.540 . T
C242 C243 1.540 . A
C242 C247 1.540 . A
C242 H252 1.140 . S
C243 C244 1.540 . A
C243 C248 1.540 . S
C244 C245 1.540 . A
C244 H253 1.140 . S
C245 C246 1.540 . A
C245 H254 1.140 . S
C246 C247 1.540 . A
C247 H255 1.140 . S
C248 C249 1.540 . T
C249 C250 1.540 . S
C250 C251 1.540 . T
C256 C257 1.540 . A
C256 C261 1.540 . A
C256 H266 1.140 . S
C257 C258 1.540 . A
C257 C262 1.539 . S
C258 C259 1.540 . A
C258 H267 1.140 . S
C259 C260 1.540 . A
C259 H268 1.140 . S
C260 C261 1.540 . A
C261 H269 1.140 . S
C262 C263 1.541 1_545 T
C263 C264 1.540 . S
C264 C265 1.540 . T
C270 C271 1.540 . A
C270 C275 1.540 . A
C270 H280 1.140 . S
C271 C272 1.540 . A
C271 C276 1.534 . S
C272 C273 1.540 . A
C272 H281 1.140 . S
C273 C274 1.540 . A
C273 H282 1.140 . S
C274 C275 1.540 . A
C275 H283 1.140 . S
C276 C277 1.546 1_455 T
C277 C278 1.540 . S
C278 C279 1.540 . T
C284 C285 1.540 . A
C284 C289 1.540 . A
C284 H294 1.140 . S
C285 C286 1.540 . A
C285 C290 1.538 . S
C286 C287 1.540 . A
C286 H295 1.140 . S
C287 C288 1.540 . A
C287 H296 1.140 . S
C288 C289 1.540 . A
C289 H297 1.140 . S
C290 C291 1.541 1_565 T
C291 C292 1.540 . S
C292 C293 1.540 . T
C298 C299 1.540 . A
C298 C303 1.540 . A
C298 H308 1.140 . S
C299 C300 1.540 . A
C299 C304 1.546 1_655 S
C300 C301 1.540 . A
C300 H309 1.140 . S
C301 C302 1.540 . A
C301 H310 1.140 . S
C302 C303 1.540 . A
C303 H311 1.140 . S
C304 C305 1.534 . T
C305 C306 1.540 . S
C306 C307 1.540 . T
C312 C313 1.540 . A
C312 C317 1.540 . A
C312 H322 1.140 . S
C313 C314 1.540 . A
C313 C318 1.538 . S
C314 C315 1.540 . A
C314 H323 1.140 . S
C315 C316 1.540 . A
C315 H324 1.140 . S
C316 C317 1.540 . A
C317 H325 1.140 . S
C318 C319 1.541 1_545 T
C319 C320 1.540 . S
C320 C321 1.540 . T
C326 C327 1.540 . A
C326 C331 1.540 . A
C326 H336 1.140 . S
C327 C328 1.540 . A
C327 C332 1.534 . S
C328 C329 1.540 . A
C328 H337 1.140 . S
C329 C330 1.540 . A
C329 H338 1.140 . S
C330 C331 1.540 . A
C331 H339 1.140 . S
C332 C333 1.545 1_655 T
C333 C334 1.540 . S
C334 C335 1.540 . T
C340 C341 1.540 . A
C340 C345 1.540 . A
C340 H350 1.140 . S
C341 C342 1.540 . A
C341 C346 1.541 1_556 S
C342 C343 1.540 . A
C342 H351 1.140 . S
C343 C344 1.540 . A
C343 H352 1.140 . S
C344 C345 1.540 . A
C345 H353 1.140 . S
C346 C347 1.539 . T
C347 C348 1.540 . S
C348 C349 1.540 . T
C354 C355 1.540 . A
C354 C359 1.540 . A
C354 H364 1.140 . S
C355 C356 1.540 . A
C355 C360 1.539 . S
C356 C357 1.540 . A
C356 H365 1.140 . S
C357 C358 1.540 . A
C357 H366 1.140 . S
C358 C359 1.540 . A
C359 H367 1.140 . S
C360 C361 1.541 1_554 T
C361 C362 1.540 . S
C362 C363 1.540 . T
C368 C369 1.540 . A
C368 C373 1.540 . A
C368 H378 1.140 . S
C369 C370 1.540 . A
C369 C374 1.539 . S
C370 C371 1.540 . A
C370 H379 1.140 . S
C371 C372 1.540 . A
C371 H380 1.140 . S
C372 C373 1.540 . A
C373 H381 1.140 . S
C374 C375 1.541 1_556 T
C375 C376 1.540 . S
C376 C377 1.540 . T
C382 C383 1.540 . A
C382 C387 1.540 . A
C382 H392 1.140 . S
C383 C384 1.540 . A
C383 C388 1.539 . S
C384 C385 1.540 . A
C384 H393 1.140 . S
C385 C386 1.540 . A
C385 H394 1.140 . S
C386 C387 1.540 . A
C387 H395 1.140 . S
C388 C389 1.541 1_556 T
C389 C390 1.540 . S
C390 C391 1.540 . T
C396 C397 1.540 . A
C396 C401 1.540 . A
C396 H406 1.140 . S
C397 C398 1.540 . A
C397 C402 1.540 . S
C398 C399 1.540 . A
C398 H407 1.140 . S
C399 C400 1.540 . A
C399 H408 1.140 . S
C400 C401 1.540 . A
C401 H409 1.140 . S
C402 C403 1.540 . T
C403 C404 1.540 . S
C404 C405 1.540 . T
C410 C411 1.540 . A
C410 C415 1.540 . A
C410 H420 1.140 . S
C411 C412 1.540 . A
C411 C416 1.540 . S
C412 C413 1.540 . A
C412 H421 1.140 . S
C413 C414 1.540 . A
C413 H422 1.140 . S
C414 C415 1.540 . A
C415 H423 1.140 . S
C416 C417 1.540 . T
C417 C418 1.540 . S
C418 C419 1.540 . T
C424 C425 1.540 . A
C424 C429 1.540 . A
C424 H434 1.140 . S
C425 C426 1.540 . A
C425 C430 1.540 . S
C426 C427 1.540 . A
C426 H435 1.140 . S
C427 C428 1.540 . A
C427 H436 1.140 . S
C428 C429 1.540 . A
C429 H437 1.140 . S
C430 C431 1.540 . T
C431 C432 1.540 . S
C432 C433 1.540 . T
C438 C439 1.540 . A
C438 C443 1.540 . A
C438 H448 1.140 . S
C439 C440 1.540 . A
C439 C444 1.540 . S
C440 C441 1.540 . A
C440 H449 1.140 . S
C441 C442 1.540 . A
C441 H450 1.140 . S
C442 C443 1.540 . A
C443 H451 1.140 . S
C444 C445 1.540 . T
C445 C446 1.540 . S
C446 C447 1.540 . T
C452 C453 1.540 . A
C452 C457 1.540 . A
C452 H462 1.140 . S
C453 C454 1.540 . A
C453 C458 1.540 . S
C454 C455 1.540 . A
C454 H463 1.140 . S
C455 C456 1.540 . A
C455 H464 1.140 . S
C456 C457 1.540 . A
C457 H465 1.140 . S
C458 C459 1.540 . T
C459 C460 1.540 . S
C460 C461 1.540 . T
C466 C467 1.540 . A
C466 C471 1.540 . A
C466 H476 1.140 . S
C467 C468 1.540 . A
C467 C472 1.540 . S
C468 C469 1.540 . A
C468 H477 1.140 . S
C469 C470 1.540 . A
C469 H478 1.140 . S
C470 C471 1.540 . A
C471 H479 1.140 . S
C472 C473 1.540 . T
C473 C474 1.540 . S
C474 C475 1.540 . T
C480 C481 1.540 . A
C480 C485 1.540 . A
C480 H490 1.140 . S
C481 C482 1.540 . A
C481 C486 1.540 . S
C482 C483 1.540 . A
C482 H491 1.140 . S
C483 C484 1.540 . A
C483 H492 1.140 . S
C484 C485 1.540 . A
C485 H493 1.140 . S
C486 C487 1.540 . T
C487 C488 1.540 . S
C488 C489 1.540 . T
C494 C495 1.540 . A
C494 C499 1.540 . A
C494 H504 1.140 . S
C495 C496 1.540 . A
C495 C500 1.540 . S
C496 C497 1.540 . A
C496 H505 1.140 . S
C497 C498 1.540 . A
C497 H506 1.140 . S
C498 C499 1.540 . A
C499 H507 1.140 . S
C500 C501 1.540 . T
C501 C502 1.540 . S
C502 C503 1.540 . T
C508 C509 1.540 . A
C508 C513 1.540 . A
C508 H518 1.140 . S
C509 C510 1.540 . A
C509 C514 1.540 . S
C510 C511 1.540 . A
C510 H519 1.140 . S
C511 C512 1.540 . A
C511 H520 1.140 . S
C512 C513 1.540 . A
C513 H521 1.140 . S
C514 C515 1.540 . T
C515 C516 1.540 . S
C516 C517 1.540 . T
C522 C523 1.540 . A
C522 C527 1.540 . A
C522 H532 1.140 . S
C523 C524 1.540 . A
C523 C528 1.540 . S
C524 C525 1.540 . A
C524 H533 1.140 . S
C525 C526 1.540 . A
C525 H534 1.140 . S
C526 C527 1.540 . A
C527 H535 1.140 . S
C528 C529 1.540 . T
C529 C530 1.540 . S
C530 C531 1.540 . T
C536 C537 1.540 . A
C536 C541 1.540 . A
C536 H546 1.140 . S
C537 C538 1.540 . A
C537 C542 1.540 . S
C538 C539 1.540 . A
C538 H547 1.140 . S
C539 C540 1.540 . A
C539 H548 1.140 . S
C540 C541 1.540 . A
C541 H549 1.140 . S
C542 C543 1.540 . T
C543 C544 1.540 . S
C544 C545 1.540 . T
C550 C551 1.540 . A
C550 C555 1.540 . A
C550 H560 1.140 . S
C551 C552 1.540 . A
C551 C556 1.540 . S
C552 C553 1.540 . A
C552 H561 1.140 . S
C553 C554 1.540 . A
C553 H562 1.140 . S
C554 C555 1.540 . A
C555 H563 1.140 . S
C556 C557 1.540 . T
C557 C558 1.540 . S
C558 C559 1.540 . T
C564 C565 1.540 . A
C564 C569 1.540 . A
C564 H574 1.140 . S
C565 C566 1.540 . A
C565 C570 1.541 1_545 S
C566 C567 1.540 . A
C566 H575 1.140 . S
C567 C568 1.540 . A
C567 H576 1.140 . S
C568 C569 1.540 . A
C569 H577 1.140 . S
C570 C571 1.539 . T
C571 C572 1.540 . S
C572 C573 1.540 . T
C578 C579 1.540 . A
C578 C583 1.540 . A
C578 H588 1.140 . S
C579 C580 1.540 . A
C579 C584 1.534 . S
C580 C581 1.540 . A
C580 H589 1.140 . S
C581 C582 1.540 . A
C581 H590 1.140 . S
C582 C583 1.540 . A
C583 H591 1.140 . S
C584 C585 1.545 1_655 T
C585 C586 1.540 . S
C586 C587 1.540 . T
C148 C128 0.839 . S
C153 C2 0.840 . S
C162 C137 0.840 . S
C167 C11 0.841 . S
C176 C20 0.841 . S
C181 C74 0.841 . S
C190 C29 0.840 . S
C195 C83 0.841 . S
C204 C92 0.840 . S
C209 C38 0.840 . S
C218 C47 0.840 . S
C223 C101 0.841 . S
C232 C110 0.840 . S
C237 C56 0.840 . S
C246 C65 0.842 . S
C251 C119 0.841 . S
C260 C0 1.236 . S
C265 C48 1.354 . S
C274 C37 1.412 . S
C279 C10 1.412 . S
C288 C18 1.235 . S
C293 C12 1.353 . S
C302 C19 1.412 . S
C307 C28 1.412 . S
C316 C36 1.235 . S
C321 C30 1.353 . S
C330 C46 1.412 . S
C335 C55 1.413 . S
C344 C57 1.353 . S
C349 C27 1.236 . S
C358 C9 1.236 . S
C363 C3 1.354 . S
C372 C45 1.235 . S
C377 C21 1.353 . S
C386 C63 1.235 . S
C391 C39 1.353 . S
C400 C102 1.353 . S
C405 C72 1.235 . S
C414 C84 1.354 . S
C419 C108 1.236 . S
C428 C90 1.236 . S
C433 C120 1.353 . S
C442 C100 1.412 . S
C447 C109 1.413 . S
C456 C111 1.353 . S
C461 C117 1.235 . S
C470 C118 1.412 . S
C475 C127 1.412 . S
C484 C99 1.236 . S
C489 C129 1.354 . S
C498 C136 1.412 . S
C503 C91 1.412 . S
C512 C135 1.236 . S
C517 C75 1.353 . S
C526 C82 1.412 . S
C531 C73 1.412 . S
C540 C93 1.353 . S
C545 C81 1.235 . S
C554 C126 1.236 . S
C559 C138 1.354 . S
C568 C66 1.353 . S
C573 C54 1.235 . S
C582 C1 1.412 . S
C587 C64 1.413 . S
