# Generated by pormake.
# Topology pcb, (4)-cn, num edge types: 1
# Building blocks:
#     Node 0, Type 0, BuildingBlock: N371, # of connection points: 4
#     Node 1, Type 0, BuildingBlock: N371, # of connection points: 4
#     Node 2, Type 0, BuildingBlock: N371, # of connection points: 4
#     Node 3, Type 0, BuildingBlock: N371, # of connection points: 4
#     Node 4, Type 0, BuildingBlock: N371, # of connection points: 4
#     Node 5, Type 0, BuildingBlock: N371, # of connection points: 4
#     Node 6, Type 0, BuildingBlock: N371, # of connection points: 4
#     Node 7, Type 0, BuildingBlock: N371, # of connection points: 4
#     Node 8, Type 0, BuildingBlock: N371, # of connection points: 4
#     Node 9, Type 0, BuildingBlock: N371, # of connection points: 4
#     Node 10, Type 0, BuildingBlock: N371, # of connection points: 4
#     Node 11, Type 0, BuildingBlock: N371, # of connection points: 4
#     Node 12, Type 0, BuildingBlock: N371, # of connection points: 4
#     Node 13, Type 0, BuildingBlock: N371, # of connection points: 4
#     Node 14, Type 0, BuildingBlock: N371, # of connection points: 4
#     Node 15, Type 0, BuildingBlock: N371, # of connection points: 4
#     Edge 16, Type (0, 0), BuildingBlock: E141, # of connection points: 2
#     Edge 17, Type (0, 0), BuildingBlock: E141, # of connection points: 2
#     Edge 18, Type (0, 0), BuildingBlock: E141, # of connection points: 2
#     Edge 19, Type (0, 0), BuildingBlock: E141, # of connection points: 2
#     Edge 20, Type (0, 0), BuildingBlock: E141, # of connection points: 2
#     Edge 21, Type (0, 0), BuildingBlock: E141, # of connection points: 2
#     Edge 22, Type (0, 0), BuildingBlock: E141, # of connection points: 2
#     Edge 23, Type (0, 0), BuildingBlock: E141, # of connection points: 2
#     Edge 24, Type (0, 0), BuildingBlock: E141, # of connection points: 2
#     Edge 25, Type (0, 0), BuildingBlock: E141, # of connection points: 2
#     Edge 26, Type (0, 0), BuildingBlock: E141, # of connection points: 2
#     Edge 27, Type (0, 0), BuildingBlock: E141, # of connection points: 2
#     Edge 28, Type (0, 0), BuildingBlock: E141, # of connection points: 2
#     Edge 29, Type (0, 0), BuildingBlock: E141, # of connection points: 2
#     Edge 30, Type (0, 0), BuildingBlock: E141, # of connection points: 2
#     Edge 31, Type (0, 0), BuildingBlock: E141, # of connection points: 2
#     Edge 32, Type (0, 0), BuildingBlock: E141, # of connection points: 2
#     Edge 33, Type (0, 0), BuildingBlock: E141, # of connection points: 2
#     Edge 34, Type (0, 0), BuildingBlock: E141, # of connection points: 2
#     Edge 35, Type (0, 0), BuildingBlock: E141, # of connection points: 2
#     Edge 36, Type (0, 0), BuildingBlock: E141, # of connection points: 2
#     Edge 37, Type (0, 0), BuildingBlock: E141, # of connection points: 2
#     Edge 38, Type (0, 0), BuildingBlock: E141, # of connection points: 2
#     Edge 39, Type (0, 0), BuildingBlock: E141, # of connection points: 2
#     Edge 40, Type (0, 0), BuildingBlock: E141, # of connection points: 2
#     Edge 41, Type (0, 0), BuildingBlock: E141, # of connection points: 2
#     Edge 42, Type (0, 0), BuildingBlock: E141, # of connection points: 2
#     Edge 43, Type (0, 0), BuildingBlock: E141, # of connection points: 2
#     Edge 44, Type (0, 0), BuildingBlock: E141, # of connection points: 2
#     Edge 45, Type (0, 0), BuildingBlock: E141, # of connection points: 2
#     Edge 46, Type (0, 0), BuildingBlock: E141, # of connection points: 2
#     Edge 47, Type (0, 0), BuildingBlock: E141, # of connection points: 2
# Relax obj value: 0.226
# Max RMSD: 0.086
# Mean RMSD: 0.086
data_pcb+N371+E141
_symmetry_space_group_name_H-M    P1
_symmetry_Int_Tables_number       1
_symmetry_cell_setting            triclinic
loop_
_symmetry_equiv_pos_as_xyz
'x, y, z'
_cell_length_a     54.759
_cell_length_b     37.477
_cell_length_c     37.477
_cell_angle_alpha  90.000
_cell_angle_beta   90.000
_cell_angle_gamma  90.000
loop_
_atom_site_label
_atom_site_type_symbol
_atom_site_fract_x
_atom_site_fract_y
_atom_site_fract_z
_atom_type_partial_charge
C0 C 0.92021 0.19141 0.78619 0.00000
C1 C 0.82798 0.20776 0.75633 0.00000
Zn2 Zn 0.89947 0.13837 0.83611 0.00000
C3 C 0.87291 0.10811 0.77701 0.00000
O4 O 0.92212 0.16561 0.80689 0.00000
O5 O 0.90037 0.20297 0.77298 0.00000
Zn6 Zn 0.86676 0.18436 0.77791 0.00000
C7 C 0.87174 0.19675 0.85781 0.00000
O8 O 0.84845 0.22039 0.74763 0.00000
O9 O 0.82646 0.17859 0.77236 0.00000
O10 O 0.88488 0.17170 0.86877 0.00000
O11 O 0.86221 0.19850 0.82815 0.00000
O12 O 0.87911 0.10603 0.80966 0.00000
O13 O 0.87097 0.13600 0.75987 0.00000
C14 C 0.92021 0.21381 0.19140 0.00000
C15 C 0.82798 0.24367 0.20776 0.00000
Zn16 Zn 0.89947 0.16389 0.13836 0.00000
C17 C 0.87291 0.22298 0.10811 0.00000
O18 O 0.92212 0.19310 0.16561 0.00000
O19 O 0.90037 0.22701 0.20297 0.00000
Zn20 Zn 0.86676 0.22208 0.18435 0.00000
C21 C 0.87174 0.14218 0.19675 0.00000
O22 O 0.84845 0.25237 0.22039 0.00000
O23 O 0.82646 0.22763 0.17859 0.00000
O24 O 0.88488 0.13123 0.17169 0.00000
O25 O 0.86221 0.17184 0.19849 0.00000
O26 O 0.87911 0.19034 0.10603 0.00000
O27 O 0.87096 0.24013 0.13600 0.00000
C28 C 0.92021 0.80859 0.21381 0.00000
C29 C 0.82798 0.79224 0.24367 0.00000
Zn30 Zn 0.89947 0.86163 0.16389 0.00000
C31 C 0.87291 0.89189 0.22299 0.00000
O32 O 0.92212 0.83439 0.19311 0.00000
O33 O 0.90036 0.79703 0.22702 0.00000
Zn34 Zn 0.86676 0.81564 0.22209 0.00000
C35 C 0.87174 0.80325 0.14219 0.00000
O36 O 0.84845 0.77961 0.25237 0.00000
O37 O 0.82646 0.82141 0.22764 0.00000
O38 O 0.88488 0.82830 0.13123 0.00000
O39 O 0.86221 0.80150 0.17185 0.00000
O40 O 0.87911 0.89397 0.19034 0.00000
O41 O 0.87096 0.86400 0.24013 0.00000
C42 C 0.07979 0.78619 0.19141 0.00000
C43 C 0.17202 0.75633 0.20776 0.00000
Zn44 Zn 0.10053 0.83611 0.13837 0.00000
C45 C 0.12709 0.77701 0.10811 0.00000
O46 O 0.07788 0.80689 0.16561 0.00000
O47 O 0.09963 0.77298 0.20297 0.00000
Zn48 Zn 0.13324 0.77791 0.18436 0.00000
C49 C 0.12826 0.85781 0.19675 0.00000
O50 O 0.15155 0.74763 0.22039 0.00000
O51 O 0.17354 0.77236 0.17859 0.00000
O52 O 0.11512 0.86877 0.17170 0.00000
O53 O 0.13779 0.82815 0.19850 0.00000
O54 O 0.12089 0.80966 0.10603 0.00000
O55 O 0.12904 0.75987 0.13600 0.00000
C56 C 0.07979 0.19140 0.21381 0.00000
C57 C 0.17202 0.20776 0.24367 0.00000
Zn58 Zn 0.10053 0.13836 0.16389 0.00000
C59 C 0.12709 0.10811 0.22298 0.00000
O60 O 0.07788 0.16561 0.19310 0.00000
O61 O 0.09964 0.20297 0.22701 0.00000
Zn62 Zn 0.13324 0.18435 0.22208 0.00000
C63 C 0.12826 0.19675 0.14218 0.00000
O64 O 0.15155 0.22039 0.25237 0.00000
O65 O 0.17354 0.17859 0.22763 0.00000
O66 O 0.11512 0.17169 0.13123 0.00000
O67 O 0.13779 0.19849 0.17184 0.00000
O68 O 0.12089 0.10603 0.19034 0.00000
O69 O 0.12904 0.13600 0.24013 0.00000
C70 C 0.92021 0.78619 0.80860 0.00000
C71 C 0.82798 0.75633 0.79224 0.00000
Zn72 Zn 0.89947 0.83611 0.86164 0.00000
C73 C 0.87291 0.77702 0.89189 0.00000
O74 O 0.92212 0.80690 0.83439 0.00000
O75 O 0.90036 0.77299 0.79703 0.00000
Zn76 Zn 0.86676 0.77792 0.81565 0.00000
C77 C 0.87174 0.85782 0.80325 0.00000
O78 O 0.84845 0.74763 0.77961 0.00000
O79 O 0.82646 0.77237 0.82141 0.00000
O80 O 0.88488 0.86877 0.82830 0.00000
O81 O 0.86221 0.82816 0.80151 0.00000
O82 O 0.87911 0.80966 0.89397 0.00000
O83 O 0.87096 0.75988 0.86400 0.00000
C84 C 0.07979 0.80860 0.78619 0.00000
C85 C 0.17202 0.79224 0.75633 0.00000
Zn86 Zn 0.10053 0.86164 0.83611 0.00000
C87 C 0.12709 0.89189 0.77702 0.00000
O88 O 0.07788 0.83439 0.80690 0.00000
O89 O 0.09964 0.79703 0.77299 0.00000
Zn90 Zn 0.13324 0.81565 0.77792 0.00000
C91 C 0.12826 0.80325 0.85782 0.00000
O92 O 0.15155 0.77961 0.74763 0.00000
O93 O 0.17354 0.82141 0.77237 0.00000
O94 O 0.11512 0.82830 0.86877 0.00000
O95 O 0.13779 0.80151 0.82816 0.00000
O96 O 0.12089 0.89397 0.80966 0.00000
O97 O 0.12904 0.86400 0.75988 0.00000
C98 C 0.07979 0.21381 0.80859 0.00000
C99 C 0.17202 0.24367 0.79224 0.00000
Zn100 Zn 0.10053 0.16389 0.86163 0.00000
C101 C 0.12709 0.22299 0.89189 0.00000
O102 O 0.07788 0.19311 0.83439 0.00000
O103 O 0.09964 0.22702 0.79703 0.00000
Zn104 Zn 0.13324 0.22209 0.81564 0.00000
C105 C 0.12826 0.14219 0.80325 0.00000
O106 O 0.15155 0.25237 0.77961 0.00000
O107 O 0.17354 0.22764 0.82141 0.00000
O108 O 0.11512 0.13123 0.82830 0.00000
O109 O 0.13779 0.17185 0.80150 0.00000
O110 O 0.12089 0.19034 0.89397 0.00000
O111 O 0.12904 0.24013 0.86400 0.00000
C112 C 0.57979 0.71381 0.30859 0.00000
C113 C 0.67202 0.74367 0.29224 0.00000
Zn114 Zn 0.60053 0.66389 0.36163 0.00000
C115 C 0.62709 0.72299 0.39189 0.00000
O116 O 0.57788 0.69311 0.33439 0.00000
O117 O 0.59964 0.72702 0.29703 0.00000
Zn118 Zn 0.63324 0.72209 0.31564 0.00000
C119 C 0.62826 0.64219 0.30325 0.00000
O120 O 0.65155 0.75237 0.27961 0.00000
O121 O 0.67354 0.72764 0.32141 0.00000
O122 O 0.61512 0.63123 0.32830 0.00000
O123 O 0.63779 0.67185 0.30150 0.00000
O124 O 0.62089 0.69034 0.39397 0.00000
O125 O 0.62904 0.74013 0.36400 0.00000
C126 C 0.42021 0.69141 0.28619 0.00000
C127 C 0.32798 0.70776 0.25633 0.00000
Zn128 Zn 0.39947 0.63837 0.33611 0.00000
C129 C 0.37291 0.60811 0.27701 0.00000
O130 O 0.42212 0.66561 0.30689 0.00000
O131 O 0.40036 0.70297 0.27298 0.00000
Zn132 Zn 0.36676 0.68436 0.27791 0.00000
C133 C 0.37174 0.69675 0.35781 0.00000
O134 O 0.34845 0.72039 0.24763 0.00000
O135 O 0.32645 0.67859 0.27236 0.00000
O136 O 0.38488 0.67170 0.36877 0.00000
O137 O 0.36220 0.69850 0.32815 0.00000
O138 O 0.37911 0.60603 0.30966 0.00000
O139 O 0.37096 0.63600 0.25987 0.00000
C140 C 0.42021 0.28619 0.30860 0.00000
C141 C 0.32798 0.25633 0.29224 0.00000
Zn142 Zn 0.39947 0.33611 0.36164 0.00000
C143 C 0.37291 0.27702 0.39189 0.00000
O144 O 0.42212 0.30690 0.33439 0.00000
O145 O 0.40037 0.27299 0.29703 0.00000
Zn146 Zn 0.36677 0.27792 0.31565 0.00000
C147 C 0.37174 0.35782 0.30325 0.00000
O148 O 0.34845 0.24763 0.27961 0.00000
O149 O 0.32646 0.27237 0.32141 0.00000
O150 O 0.38488 0.36877 0.32830 0.00000
O151 O 0.36221 0.32816 0.30151 0.00000
O152 O 0.37911 0.30966 0.39397 0.00000
O153 O 0.37097 0.25988 0.36400 0.00000
C154 C 0.57979 0.69140 0.71381 0.00000
C155 C 0.67202 0.70776 0.74367 0.00000
Zn156 Zn 0.60053 0.63836 0.66389 0.00000
C157 C 0.62709 0.60811 0.72298 0.00000
O158 O 0.57788 0.66561 0.69310 0.00000
O159 O 0.59963 0.70297 0.72701 0.00000
Zn160 Zn 0.63324 0.68435 0.72208 0.00000
C161 C 0.62826 0.69675 0.64218 0.00000
O162 O 0.65155 0.72039 0.75237 0.00000
O163 O 0.67354 0.67859 0.72763 0.00000
O164 O 0.61512 0.67170 0.63123 0.00000
O165 O 0.63779 0.69849 0.67184 0.00000
O166 O 0.62089 0.60603 0.69034 0.00000
O167 O 0.62903 0.63600 0.74012 0.00000
C168 C 0.42021 0.71381 0.69140 0.00000
C169 C 0.32798 0.74367 0.70776 0.00000
Zn170 Zn 0.39947 0.66389 0.63836 0.00000
C171 C 0.37291 0.72298 0.60811 0.00000
O172 O 0.42212 0.69310 0.66561 0.00000
O173 O 0.40037 0.72701 0.70297 0.00000
Zn174 Zn 0.36676 0.72208 0.68435 0.00000
C175 C 0.37174 0.64218 0.69675 0.00000
O176 O 0.34845 0.75237 0.72039 0.00000
O177 O 0.32646 0.72763 0.67859 0.00000
O178 O 0.38488 0.63123 0.67170 0.00000
O179 O 0.36221 0.67184 0.69849 0.00000
O180 O 0.37911 0.69034 0.60603 0.00000
O181 O 0.37096 0.74012 0.63600 0.00000
C182 C 0.42021 0.30859 0.71381 0.00000
C183 C 0.32798 0.29224 0.74367 0.00000
Zn184 Zn 0.39947 0.36163 0.66389 0.00000
C185 C 0.37291 0.39189 0.72299 0.00000
O186 O 0.42212 0.33439 0.69311 0.00000
O187 O 0.40036 0.29703 0.72702 0.00000
Zn188 Zn 0.36676 0.31564 0.72209 0.00000
C189 C 0.37174 0.30325 0.64219 0.00000
O190 O 0.34845 0.27961 0.75237 0.00000
O191 O 0.32646 0.32141 0.72764 0.00000
O192 O 0.38488 0.32830 0.63123 0.00000
O193 O 0.36221 0.30150 0.67185 0.00000
O194 O 0.37911 0.39397 0.69034 0.00000
O195 O 0.37096 0.36400 0.74013 0.00000
C196 C 0.57979 0.28619 0.69141 0.00000
C197 C 0.67202 0.25633 0.70776 0.00000
Zn198 Zn 0.60054 0.33611 0.63837 0.00000
C199 C 0.62709 0.27701 0.60811 0.00000
O200 O 0.57789 0.30689 0.66561 0.00000
O201 O 0.59964 0.27298 0.70297 0.00000
Zn202 Zn 0.63324 0.27791 0.68436 0.00000
C203 C 0.62826 0.35781 0.69675 0.00000
O204 O 0.65155 0.24763 0.72039 0.00000
O205 O 0.67355 0.27236 0.67859 0.00000
O206 O 0.61512 0.36877 0.67170 0.00000
O207 O 0.63780 0.32815 0.69850 0.00000
O208 O 0.62089 0.30966 0.60603 0.00000
O209 O 0.62904 0.25987 0.63600 0.00000
C210 C 0.57978 0.30860 0.28619 0.00000
C211 C 0.67202 0.29224 0.25633 0.00000
Zn212 Zn 0.60053 0.36164 0.33611 0.00000
C213 C 0.62709 0.39189 0.27702 0.00000
O214 O 0.57788 0.33439 0.30690 0.00000
O215 O 0.59963 0.29703 0.27299 0.00000
Zn216 Zn 0.63323 0.31565 0.27792 0.00000
C217 C 0.62826 0.30325 0.35782 0.00000
O218 O 0.65155 0.27961 0.24763 0.00000
O219 O 0.67354 0.32141 0.27237 0.00000
O220 O 0.61512 0.32831 0.36877 0.00000
O221 O 0.63779 0.30151 0.32816 0.00000
O222 O 0.62089 0.39397 0.30966 0.00000
O223 O 0.62903 0.36400 0.25987 0.00000
H224 H 0.78302 0.21975 0.70162 0.00000
H225 H 0.75109 0.25045 0.67641 0.00000
C226 C 0.76955 0.21749 0.75138 0.00000
H227 H 0.74891 0.22166 0.79570 0.00000
H228 H 0.67908 0.28558 0.72809 0.00000
C229 C 0.79037 0.19683 0.76825 0.00000
H230 H 0.82093 0.18653 0.74402 0.00000
C231 C 0.76976 0.22630 0.71567 0.00000
C232 C 0.74945 0.22744 0.77158 0.00000
H233 H 0.71698 0.25237 0.77049 0.00000
C234 C 0.73046 0.25462 0.72073 0.00000
C235 C 0.70964 0.27529 0.70386 0.00000
N236 N 0.68613 0.26921 0.71968 0.00000
C237 C 0.73025 0.24582 0.75645 0.00000
N238 N 0.81387 0.20290 0.75243 0.00000
C239 C 0.75055 0.24467 0.70053 0.00000
H240 H 0.71331 0.30056 0.70536 0.00000
H241 H 0.70875 0.26905 0.67878 0.00000
H242 H 0.78669 0.17155 0.76675 0.00000
H243 H 0.79126 0.20307 0.79334 0.00000
H244 H 0.77241 0.21715 0.21330 0.00000
H245 H 0.73257 0.22515 0.19588 0.00000
C246 C 0.77432 0.25910 0.24648 0.00000
H247 H 0.76743 0.30274 0.27623 0.00000
H248 H 0.67736 0.30855 0.23479 0.00000
C249 C 0.80051 0.25385 0.25855 0.00000
H250 H 0.82264 0.21934 0.23733 0.00000
C251 C 0.76347 0.23612 0.22254 0.00000
C252 C 0.76047 0.28699 0.25996 0.00000
H253 H 0.72759 0.31074 0.25882 0.00000
C254 C 0.72568 0.26879 0.22563 0.00000
C255 C 0.69949 0.27403 0.21357 0.00000
N256 N 0.68374 0.29023 0.23954 0.00000
C257 C 0.73654 0.29177 0.24957 0.00000
N258 N 0.81626 0.23766 0.23257 0.00000
C259 C 0.73953 0.24089 0.21216 0.00000
H260 H 0.69950 0.28877 0.19229 0.00000
H261 H 0.69275 0.25099 0.20711 0.00000
H262 H 0.80050 0.23912 0.27982 0.00000
H263 H 0.80725 0.27690 0.26500 0.00000
H264 H 0.72817 0.72729 0.30160 0.00000
H265 H 0.76649 0.74636 0.31759 0.00000
C266 C 0.72659 0.75241 0.25435 0.00000
H267 H 0.73351 0.78152 0.21029 0.00000
H268 H 0.82050 0.81424 0.25324 0.00000
C269 C 0.70143 0.73963 0.24327 0.00000
H270 H 0.67950 0.71365 0.27465 0.00000
C271 C 0.73688 0.74212 0.28631 0.00000
C272 C 0.74009 0.77436 0.23203 0.00000
H273 H 0.77183 0.80060 0.22629 0.00000
C274 C 0.77341 0.77547 0.27353 0.00000
C275 C 0.79857 0.78825 0.28461 0.00000
N276 N 0.81513 0.79482 0.25566 0.00000
C277 C 0.76312 0.78577 0.24158 0.00000
N278 N 0.68487 0.73307 0.27223 0.00000
C279 C 0.75991 0.75353 0.29586 0.00000
H280 H 0.79677 0.81011 0.29823 0.00000
H281 H 0.80577 0.77052 0.30025 0.00000
H282 H 0.70323 0.71778 0.22966 0.00000
H283 H 0.69422 0.75737 0.22764 0.00000
H284 H 0.27657 0.74724 0.28239 0.00000
H285 H 0.23564 0.73998 0.29361 0.00000
C286 C 0.27497 0.74032 0.22933 0.00000
H287 H 0.26436 0.73213 0.17850 0.00000
H288 H 0.17322 0.72288 0.21383 0.00000
C289 C 0.30191 0.74551 0.22151 0.00000
H290 H 0.32679 0.74923 0.25828 0.00000
C291 C 0.26594 0.74268 0.26358 0.00000
C292 C 0.25865 0.73372 0.20183 0.00000
H293 H 0.22343 0.72487 0.18972 0.00000
C294 C 0.22502 0.73180 0.24278 0.00000
C295 C 0.19809 0.72660 0.25060 0.00000
N296 N 0.18194 0.73733 0.22240 0.00000
C297 C 0.23406 0.72943 0.20853 0.00000
N298 N 0.31806 0.73478 0.24971 0.00000
C299 C 0.24135 0.73840 0.27029 0.00000
H300 H 0.19524 0.70157 0.25571 0.00000
H301 H 0.19397 0.74003 0.27189 0.00000
H302 H 0.30476 0.77054 0.21640 0.00000
H303 H 0.30603 0.73208 0.20022 0.00000
H304 H 0.22282 0.19143 0.27846 0.00000
H305 H 0.25579 0.20254 0.31466 0.00000
C306 C 0.22982 0.22934 0.24202 0.00000
H307 H 0.24421 0.26958 0.21322 0.00000
H308 H 0.31806 0.28274 0.29838 0.00000
C309 C 0.20830 0.22197 0.21765 0.00000
H310 H 0.18194 0.18938 0.22951 0.00000
C311 C 0.23371 0.20951 0.27248 0.00000
C312 C 0.24646 0.25596 0.23371 0.00000
H313 H 0.27718 0.28068 0.24943 0.00000
C314 C 0.27018 0.24278 0.28586 0.00000
C315 C 0.29170 0.25014 0.31024 0.00000
N316 N 0.31303 0.26381 0.29267 0.00000
C317 C 0.26629 0.26260 0.25540 0.00000
N318 N 0.18697 0.20831 0.23522 0.00000
C319 C 0.25354 0.21615 0.29417 0.00000
H320 H 0.28666 0.26716 0.32829 0.00000
H321 H 0.29606 0.22818 0.32234 0.00000
H322 H 0.21334 0.20495 0.19959 0.00000
H323 H 0.20394 0.24394 0.20554 0.00000
H324 H 0.72014 0.76244 0.72960 0.00000
H325 H 0.76038 0.76645 0.71282 0.00000
C326 C 0.72544 0.73351 0.77400 0.00000
H327 H 0.73962 0.70566 0.81507 0.00000
H328 H 0.82828 0.72526 0.77144 0.00000
C329 C 0.69897 0.73106 0.78563 0.00000
H330 H 0.67172 0.74685 0.75644 0.00000
C331 C 0.73210 0.75170 0.74355 0.00000
C332 C 0.74372 0.71796 0.79436 0.00000
H333 H 0.77986 0.70967 0.79829 0.00000
C334 C 0.77455 0.73860 0.75388 0.00000
C335 C 0.80103 0.74106 0.74226 0.00000
N336 N 0.81847 0.74072 0.77085 0.00000
C337 C 0.76789 0.72042 0.78434 0.00000
N338 N 0.68153 0.73139 0.75703 0.00000
C339 C 0.75628 0.75415 0.73353 0.00000
H340 H 0.80454 0.72122 0.72645 0.00000
H341 H 0.80320 0.76288 0.72870 0.00000
H342 H 0.69546 0.75089 0.80143 0.00000
H343 H 0.69680 0.70924 0.79918 0.00000
H344 H 0.21419 0.73356 0.72521 0.00000
H345 H 0.25004 0.70266 0.73264 0.00000
C346 C 0.22809 0.78269 0.73169 0.00000
H347 H 0.24996 0.82523 0.73947 0.00000
H348 H 0.32738 0.74662 0.74921 0.00000
C349 C 0.20460 0.80344 0.72637 0.00000
H350 H 0.17262 0.78127 0.72291 0.00000
C351 C 0.22858 0.74597 0.72963 0.00000
C352 C 0.24987 0.80045 0.73809 0.00000
H353 H 0.28581 0.79433 0.74691 0.00000
C354 C 0.27191 0.74520 0.74042 0.00000
C355 C 0.29540 0.72445 0.74574 0.00000
N356 N 0.31716 0.74280 0.73481 0.00000
C357 C 0.27142 0.78192 0.74249 0.00000
N358 N 0.18284 0.78509 0.73730 0.00000
C359 C 0.25012 0.72744 0.73402 0.00000
H360 H 0.29691 0.71843 0.77082 0.00000
H361 H 0.29428 0.70227 0.73250 0.00000
H362 H 0.20309 0.80945 0.70130 0.00000
H363 H 0.20572 0.82562 0.73962 0.00000
H364 H 0.28170 0.23198 0.73920 0.00000
H365 H 0.24223 0.22087 0.72171 0.00000
C366 C 0.27409 0.27077 0.77442 0.00000
H367 H 0.25777 0.30701 0.80618 0.00000
H368 H 0.17133 0.27047 0.76396 0.00000
C369 C 0.30004 0.27804 0.78654 0.00000
H370 H 0.32867 0.25742 0.76393 0.00000
C371 C 0.26898 0.24500 0.74925 0.00000
C372 C 0.25473 0.28959 0.78907 0.00000
H373 H 0.21830 0.29591 0.78868 0.00000
C374 C 0.22591 0.25712 0.75347 0.00000
C375 C 0.19996 0.24985 0.74135 0.00000
N376 N 0.18156 0.25612 0.76789 0.00000
C377 C 0.23102 0.28289 0.77864 0.00000
N378 N 0.31844 0.27177 0.76000 0.00000
C379 C 0.24527 0.23830 0.73882 0.00000
H380 H 0.19647 0.26475 0.72082 0.00000
H381 H 0.19885 0.22518 0.73370 0.00000
H382 H 0.30353 0.26313 0.80707 0.00000
H383 H 0.30115 0.30271 0.79419 0.00000
H384 H 0.86006 0.93344 0.74105 0.00000
H385 H 0.87314 0.98634 0.71674 0.00000
C386 C 0.86223 0.94824 0.79243 0.00000
H387 H 0.86704 0.97482 0.83864 0.00000
H388 H 0.89208 0.09106 0.77370 0.00000
C389 C 0.85332 0.91360 0.80880 0.00000
H390 H 0.84810 0.87009 0.78167 0.00000
C391 C 0.86412 0.95235 0.75598 0.00000
C392 C 0.86826 0.97700 0.81398 0.00000
H393 H 0.88012 0.02772 0.81433 0.00000
C394 C 0.87796 0.01292 0.76295 0.00000
C395 C 0.88687 0.04755 0.74658 0.00000
N396 N 0.88122 0.07904 0.76677 0.00000
C397 C 0.87607 0.00880 0.79940 0.00000
N398 N 0.85897 0.88212 0.78861 0.00000
C399 C 0.87192 0.98416 0.74140 0.00000
H400 H 0.90444 0.04617 0.74368 0.00000
H401 H 0.87975 0.04996 0.72301 0.00000
H402 H 0.83574 0.91499 0.81169 0.00000
H403 H 0.86044 0.91120 0.83237 0.00000
H404 H 0.96674 0.18599 0.23905 0.00000
H405 H 0.00318 0.19227 0.26874 0.00000
C406 C 0.97773 0.20653 0.19226 0.00000
H407 H 0.99682 0.22818 0.15171 0.00000
H408 H 0.07653 0.23281 0.22576 0.00000
C409 C 0.95387 0.20211 0.17222 0.00000
H410 H 0.92347 0.18765 0.19469 0.00000
C411 C 0.98009 0.19584 0.22729 0.00000
C412 C 0.99800 0.22091 0.17538 0.00000
H413 H 0.03325 0.23446 0.18140 0.00000
C414 C 0.02227 0.21393 0.22819 0.00000
C415 C 0.04613 0.21835 0.24824 0.00000
N416 N 0.06767 0.21618 0.22652 0.00000
C417 C 0.01990 0.22462 0.19316 0.00000
N418 N 0.93233 0.20428 0.19394 0.00000
C419 C 0.00199 0.19955 0.24507 0.00000
H420 H 0.04601 0.24133 0.26014 0.00000
H421 H 0.04707 0.20008 0.26652 0.00000
H422 H 0.95399 0.17913 0.16031 0.00000
H423 H 0.95293 0.22037 0.15393 0.00000
H424 H 0.85626 0.06634 0.25650 0.00000
H425 H 0.86734 0.01366 0.28329 0.00000
C426 C 0.86344 0.05163 0.20608 0.00000
H427 H 0.87285 0.02518 0.16133 0.00000
H428 H 0.89243 0.90934 0.23085 0.00000
C429 C 0.85588 0.08611 0.18803 0.00000
H430 H 0.84776 0.12950 0.21378 0.00000
C431 C 0.86186 0.04752 0.24256 0.00000
C432 C 0.87172 0.02300 0.18600 0.00000
H433 H 0.88393 0.97250 0.18812 0.00000
C434 C 0.87674 0.98722 0.23854 0.00000
C435 C 0.88430 0.95273 0.25660 0.00000
N436 N 0.88090 0.92117 0.23549 0.00000
C437 C 0.87833 0.99133 0.20206 0.00000
N438 N 0.85928 0.11768 0.20914 0.00000
C439 C 0.86847 0.01585 0.25862 0.00000
H440 H 0.90141 0.95444 0.26305 0.00000
H441 H 0.87502 0.95018 0.27849 0.00000
H442 H 0.83877 0.08441 0.18157 0.00000
H443 H 0.86517 0.08867 0.16613 0.00000
H444 H 0.02959 0.75470 0.23630 0.00000
H445 H 0.99027 0.73396 0.23148 0.00000
C446 C 0.02401 0.80226 0.21305 0.00000
H447 H 0.00973 0.84557 0.18899 0.00000
H448 H 0.92270 0.79177 0.18804 0.00000
C449 C 0.04984 0.81645 0.21649 0.00000
H450 H 0.07731 0.78777 0.23242 0.00000
C451 C 0.01774 0.76896 0.22571 0.00000
C452 C 0.00590 0.82298 0.19760 0.00000
H453 H 0.97041 0.82484 0.18416 0.00000
C454 C 0.97599 0.77728 0.20741 0.00000
C455 C 0.95016 0.76309 0.20397 0.00000
N456 N 0.93140 0.78982 0.20475 0.00000
C457 C 0.98227 0.81058 0.19475 0.00000
N458 N 0.06860 0.78971 0.21571 0.00000
C459 C 0.99411 0.75656 0.22287 0.00000
H460 H 0.94886 0.75003 0.18171 0.00000
H461 H 0.94721 0.74636 0.22324 0.00000
H462 H 0.05114 0.82951 0.23875 0.00000
H463 H 0.05279 0.83318 0.19722 0.00000
H464 H 0.15082 0.93433 0.24891 0.00000
H465 H 0.14465 0.98667 0.27947 0.00000
C466 C 0.13359 0.94857 0.20382 0.00000
H467 H 0.11517 0.97448 0.16516 0.00000
H468 H 0.10830 0.08980 0.24045 0.00000
C469 C 0.13781 0.91432 0.18319 0.00000
H470 H 0.15151 0.87135 0.20417 0.00000
C471 C 0.14233 0.95288 0.23805 0.00000
C472 C 0.12115 0.97680 0.18827 0.00000
H473 H 0.10900 0.02682 0.19571 0.00000
C474 C 0.12622 0.01258 0.24080 0.00000
C475 C 0.12200 0.04683 0.26143 0.00000
N476 N 0.12046 0.07843 0.23992 0.00000
C477 C 0.11748 0.00826 0.20658 0.00000
N478 N 0.13936 0.88271 0.20471 0.00000
C479 C 0.13867 0.98435 0.25635 0.00000
H480 H 0.10696 0.04450 0.27491 0.00000
H481 H 0.13521 0.04983 0.27841 0.00000
H482 H 0.15285 0.91665 0.16971 0.00000
H483 H 0.12460 0.91132 0.16621 0.00000
H484 H 0.03326 0.76507 0.81819 0.00000
H485 H 0.99710 0.73415 0.81538 0.00000
C486 C 0.02210 0.80847 0.79137 0.00000
H487 H 0.00290 0.84540 0.76416 0.00000
H488 H 0.92379 0.76996 0.76828 0.00000
C489 C 0.04578 0.82936 0.79343 0.00000
H490 H 0.07621 0.80958 0.81127 0.00000
C491 C 0.01991 0.77516 0.80664 0.00000
C492 C 0.00183 0.82290 0.77454 0.00000
H493 H 0.96674 0.81448 0.76136 0.00000
C494 C 0.97790 0.77107 0.78817 0.00000
C495 C 0.95422 0.75019 0.78611 0.00000
N496 N 0.93251 0.77161 0.78500 0.00000
C497 C 0.98009 0.80439 0.77290 0.00000
N498 N 0.06749 0.80793 0.79454 0.00000
C499 C 0.99817 0.75665 0.80501 0.00000
H500 H 0.95463 0.73531 0.76494 0.00000
H501 H 0.95326 0.73451 0.80665 0.00000
H502 H 0.04537 0.84424 0.81460 0.00000
H503 H 0.04674 0.84504 0.77289 0.00000
H504 H 0.11693 0.73510 0.02065 0.00000
H505 H 0.12849 0.71859 0.96411 0.00000
C506 C 0.12296 0.78764 0.01512 0.00000
H507 H 0.13133 0.83678 0.99705 0.00000
H508 H 0.15220 0.78982 0.87082 0.00000
C509 C 0.11508 0.79894 0.05222 0.00000
H510 H 0.10761 0.76555 0.09034 0.00000
C511 C 0.12218 0.75241 0.00461 0.00000
C512 C 0.13074 0.81285 0.99053 0.00000
H513 H 0.14289 0.82028 0.94051 0.00000
C514 C 0.13685 0.76774 0.94604 0.00000
C515 C 0.14473 0.75643 0.90893 0.00000
N516 N 0.14081 0.78262 0.88159 0.00000
C517 C 0.13764 0.80297 0.95655 0.00000
N518 N 0.11901 0.77275 0.07957 0.00000
C519 C 0.12908 0.74253 0.97063 0.00000
H520 H 0.16198 0.75059 0.90954 0.00000
H521 H 0.13593 0.73491 0.90251 0.00000
H522 H 0.09783 0.80479 0.05162 0.00000
H523 H 0.12388 0.82047 0.05865 0.00000
H524 H 0.86106 0.25945 0.93339 0.00000
H525 H 0.87460 0.28306 0.98636 0.00000
C526 C 0.86195 0.20799 0.94820 0.00000
H527 H 0.86558 0.16156 0.97479 0.00000
H528 H 0.89193 0.22516 0.09116 0.00000
C529 C 0.85272 0.19209 0.91352 0.00000
H530 H 0.84826 0.21946 0.86999 0.00000
C531 C 0.86471 0.24432 0.95232 0.00000
C532 C 0.86739 0.18614 0.97698 0.00000
H533 H 0.87913 0.18518 0.02775 0.00000
C534 C 0.87824 0.23663 0.01295 0.00000
C535 C 0.88747 0.25254 0.04763 0.00000
N536 N 0.88126 0.23265 0.07908 0.00000
C537 C 0.87548 0.20031 0.00882 0.00000
N538 N 0.85893 0.21197 0.88207 0.00000
C539 C 0.87279 0.25848 0.98416 0.00000
H540 H 0.90510 0.25452 0.04632 0.00000
H541 H 0.88091 0.27646 0.05000 0.00000
H542 H 0.83508 0.19010 0.91483 0.00000
H543 H 0.85927 0.16816 0.91114 0.00000
H544 H 0.86489 0.73917 0.06673 0.00000
H545 H 0.88003 0.71834 0.01352 0.00000
C546 C 0.86098 0.79033 0.05195 0.00000
H547 H 0.86016 0.83704 0.02533 0.00000
H548 H 0.89110 0.77901 0.90847 0.00000
C549 C 0.85067 0.80433 0.08680 0.00000
H550 H 0.84909 0.77637 0.13038 0.00000
C551 C 0.86698 0.75486 0.04775 0.00000
C552 C 0.86416 0.81302 0.02309 0.00000
H553 H 0.87530 0.81621 0.97212 0.00000
C554 C 0.87920 0.76504 0.98690 0.00000
C555 C 0.88951 0.75104 0.95205 0.00000
N556 N 0.88130 0.76953 0.92072 0.00000
C557 C 0.87321 0.80052 0.99111 0.00000
N558 N 0.85888 0.78585 0.11813 0.00000
C559 C 0.87602 0.74236 0.01576 0.00000
H560 H 0.90718 0.75249 0.95305 0.00000
H561 H 0.88517 0.72606 0.94977 0.00000
H562 H 0.83300 0.80289 0.08580 0.00000
H563 H 0.85502 0.82932 0.08908 0.00000
H564 H 0.10078 0.21077 0.06225 0.00000
H565 H 0.09579 0.18942 0.00528 0.00000
C566 C 0.13295 0.23514 0.05422 0.00000
H567 H 0.16403 0.25521 0.03356 0.00000
H568 H 0.14441 0.20732 0.90726 0.00000
C569 C 0.13631 0.24978 0.09162 0.00000
H570 H 0.11540 0.23730 0.13159 0.00000
C571 C 0.11261 0.21547 0.04509 0.00000
C572 C 0.15021 0.24190 0.02799 0.00000
H573 H 0.15904 0.23386 0.97659 0.00000
C574 C 0.12686 0.20949 0.98463 0.00000
C575 C 0.12350 0.19485 0.94722 0.00000
N576 N 0.13424 0.21602 0.91943 0.00000
C577 C 0.14720 0.22915 0.99375 0.00000
N578 N 0.12558 0.22860 0.11941 0.00000
C579 C 0.10961 0.20273 0.01085 0.00000
H580 H 0.13053 0.17111 0.94624 0.00000
H581 H 0.10615 0.19260 0.94251 0.00000
H582 H 0.12929 0.27351 0.09260 0.00000
H583 H 0.15366 0.25202 0.09633 0.00000
H584 H 0.61301 0.76155 0.47905 0.00000
H585 H 0.62218 0.78038 0.53579 0.00000
C586 C 0.62441 0.71097 0.48476 0.00000
H587 H 0.63763 0.66424 0.50305 0.00000
H588 H 0.65218 0.71518 0.62962 0.00000
C589 C 0.61814 0.69807 0.44751 0.00000
H590 H 0.60763 0.72945 0.40921 0.00000
C591 C 0.61986 0.74560 0.49521 0.00000
C592 C 0.63449 0.68776 0.50952 0.00000
H593 H 0.64681 0.68307 0.55979 0.00000
C594 C 0.63541 0.73366 0.55409 0.00000
C595 C 0.64167 0.74655 0.59133 0.00000
N596 N 0.64027 0.71976 0.61862 0.00000
C597 C 0.63996 0.69902 0.54363 0.00000
N598 N 0.61954 0.72486 0.42022 0.00000
C599 C 0.62533 0.75687 0.52932 0.00000
H600 H 0.65811 0.75617 0.59106 0.00000
H601 H 0.63067 0.76585 0.59756 0.00000
H602 H 0.60170 0.68845 0.44778 0.00000
H603 H 0.62915 0.67877 0.44128 0.00000
H604 H 0.34880 0.69626 0.52676 0.00000
H605 H 0.35467 0.66555 0.47444 0.00000
C606 C 0.36659 0.74089 0.51257 0.00000
H607 H 0.38551 0.77908 0.48672 0.00000
H608 H 0.39162 0.70362 0.37142 0.00000
C609 C 0.36257 0.76163 0.54681 0.00000
H610 H 0.34856 0.74101 0.58974 0.00000
C611 C 0.35744 0.70690 0.50823 0.00000
C612 C 0.37925 0.75612 0.48438 0.00000
H613 H 0.39138 0.74837 0.43439 0.00000
C614 C 0.37360 0.70373 0.44858 0.00000
C615 C 0.37761 0.68299 0.41434 0.00000
N616 N 0.37946 0.70447 0.38274 0.00000
C617 C 0.38275 0.73773 0.45292 0.00000
N618 N 0.36073 0.74016 0.57841 0.00000
C619 C 0.36093 0.68850 0.47677 0.00000
H620 H 0.39248 0.66913 0.41671 0.00000
H621 H 0.36420 0.66636 0.41131 0.00000
H622 H 0.34770 0.77550 0.54444 0.00000
H623 H 0.37598 0.77827 0.54984 0.00000
H624 H 0.39965 0.28396 0.56272 0.00000
H625 H 0.40682 0.30422 0.50585 0.00000
C626 C 0.36573 0.26553 0.55416 0.00000
H627 H 0.33337 0.25115 0.53300 0.00000
H628 H 0.35779 0.29509 0.40705 0.00000
C629 C 0.36089 0.25162 0.59150 0.00000
H630 H 0.38239 0.26029 0.63181 0.00000
C631 C 0.38764 0.28140 0.54538 0.00000
C632 C 0.34824 0.26189 0.52766 0.00000
H633 H 0.34053 0.27141 0.47613 0.00000
C634 C 0.37445 0.28985 0.48469 0.00000
C635 C 0.37929 0.30375 0.44735 0.00000
N636 N 0.36707 0.28464 0.41938 0.00000
C637 C 0.35255 0.27398 0.49348 0.00000
N638 N 0.37312 0.27074 0.61947 0.00000
C639 C 0.39194 0.29349 0.51120 0.00000
H640 H 0.37432 0.32857 0.44628 0.00000
H641 H 0.39673 0.30287 0.44292 0.00000
H642 H 0.36587 0.22681 0.59257 0.00000
H643 H 0.34345 0.25251 0.59593 0.00000
H644 H 0.47337 0.72379 0.66461 0.00000
H645 H 0.51040 0.69793 0.65204 0.00000
C646 C 0.47736 0.72583 0.71781 0.00000
H647 H 0.48960 0.72253 0.76841 0.00000
H648 H 0.57261 0.66963 0.72893 0.00000
C649 C 0.45310 0.74333 0.72643 0.00000
H650 H 0.42738 0.75082 0.69152 0.00000
C651 C 0.48402 0.71834 0.68314 0.00000
C652 C 0.49371 0.71759 0.74484 0.00000
H653 H 0.52663 0.69666 0.75585 0.00000
C654 C 0.52264 0.69462 0.70264 0.00000
C655 C 0.54690 0.67713 0.69402 0.00000
N656 N 0.56634 0.68540 0.71835 0.00000
C657 C 0.51597 0.70212 0.73731 0.00000
N658 N 0.43366 0.73505 0.70211 0.00000
C659 C 0.50629 0.70287 0.67561 0.00000
H660 H 0.54462 0.65146 0.69372 0.00000
H661 H 0.55183 0.68436 0.67024 0.00000
H662 H 0.45538 0.76899 0.72674 0.00000
H663 H 0.44817 0.73609 0.75022 0.00000
H664 H 0.36308 0.47217 0.68435 0.00000
H665 H 0.37752 0.52525 0.66218 0.00000
C666 C 0.36140 0.48697 0.73576 0.00000
H667 H 0.36266 0.51359 0.78245 0.00000
H668 H 0.39156 0.63019 0.72171 0.00000
C669 C 0.35156 0.45221 0.75067 0.00000
H670 H 0.34862 0.40865 0.72292 0.00000
C671 C 0.36590 0.49113 0.69981 0.00000
C672 C 0.36565 0.51580 0.75811 0.00000
H673 H 0.37711 0.56667 0.76028 0.00000
C674 C 0.37878 0.55187 0.70887 0.00000
C675 C 0.38862 0.58663 0.69395 0.00000
N676 N 0.38134 0.61803 0.71313 0.00000
C677 C 0.37428 0.54771 0.74482 0.00000
N678 N 0.35885 0.42081 0.73149 0.00000
C679 C 0.37453 0.52304 0.68651 0.00000
H680 H 0.40631 0.58548 0.69380 0.00000
H681 H 0.38324 0.58895 0.66941 0.00000
H682 H 0.33387 0.45336 0.75082 0.00000
H683 H 0.35695 0.44989 0.77522 0.00000
H684 H 0.53234 0.32906 0.70842 0.00000
H685 H 0.49717 0.34428 0.73813 0.00000
C686 C 0.52150 0.28049 0.69229 0.00000
H687 H 0.50283 0.23525 0.68233 0.00000
H688 H 0.42557 0.28143 0.74708 0.00000
C689 C 0.54450 0.27030 0.67219 0.00000
H690 H 0.57443 0.29811 0.67338 0.00000
C691 C 0.51936 0.31307 0.70910 0.00000
C692 C 0.50179 0.25732 0.69359 0.00000
H693 H 0.46767 0.25048 0.71205 0.00000
C694 C 0.47850 0.29904 0.72817 0.00000
C695 C 0.45550 0.30923 0.74827 0.00000
N696 N 0.43340 0.29391 0.73451 0.00000
C697 C 0.48064 0.26647 0.71137 0.00000
N698 N 0.56660 0.28562 0.68596 0.00000
C699 C 0.49822 0.32222 0.72687 0.00000
H700 H 0.45731 0.30198 0.77297 0.00000
H701 H 0.45390 0.33500 0.74790 0.00000
H702 H 0.54269 0.27755 0.64749 0.00000
H703 H 0.54610 0.24453 0.67257 0.00000
H704 H 0.65116 0.43438 0.74839 0.00000
H705 H 0.64529 0.48670 0.77910 0.00000
C706 C 0.63341 0.44858 0.70374 0.00000
H707 H 0.61452 0.47445 0.66552 0.00000
H708 H 0.60840 0.58975 0.74098 0.00000
C709 C 0.63743 0.41433 0.68300 0.00000
H710 H 0.65141 0.37140 0.70365 0.00000
C711 C 0.64254 0.45291 0.73774 0.00000
C712 C 0.62077 0.47678 0.68849 0.00000
H713 H 0.60865 0.52677 0.69623 0.00000
C714 C 0.62640 0.51257 0.74089 0.00000
C715 C 0.62238 0.54682 0.76162 0.00000
N716 N 0.62056 0.57841 0.74015 0.00000
C717 C 0.61727 0.50824 0.70688 0.00000
N718 N 0.63925 0.38273 0.70448 0.00000
C719 C 0.63905 0.48437 0.75613 0.00000
H720 H 0.60750 0.54445 0.77547 0.00000
H721 H 0.63578 0.54984 0.77827 0.00000
H722 H 0.65231 0.41670 0.66916 0.00000
H723 H 0.62403 0.41131 0.66635 0.00000
H724 H 0.47030 0.31678 0.32393 0.00000
H725 H 0.50551 0.34709 0.31021 0.00000
C726 C 0.47846 0.27143 0.29803 0.00000
H727 H 0.49449 0.23246 0.26933 0.00000
H728 H 0.57266 0.30729 0.24884 0.00000
C729 C 0.45543 0.25097 0.30728 0.00000
H730 H 0.42733 0.27225 0.33070 0.00000
C731 C 0.48220 0.30575 0.31009 0.00000
C732 C 0.49662 0.25564 0.27764 0.00000
H733 H 0.52970 0.26277 0.25562 0.00000
C734 C 0.52154 0.30811 0.28152 0.00000
C735 C 0.54457 0.32858 0.27227 0.00000
N736 N 0.56595 0.30694 0.26751 0.00000
C737 C 0.51779 0.27379 0.26945 0.00000
N738 N 0.43405 0.27261 0.31203 0.00000
C739 C 0.50338 0.32391 0.30190 0.00000
H740 H 0.54172 0.34188 0.25046 0.00000
H741 H 0.54777 0.34571 0.29110 0.00000
H742 H 0.45828 0.23766 0.32909 0.00000
H743 H 0.45223 0.23384 0.28845 0.00000
H744 H 0.65790 0.56171 0.29554 0.00000
H745 H 0.67105 0.50881 0.27132 0.00000
C746 C 0.62195 0.55177 0.29230 0.00000
H747 H 0.58876 0.53004 0.28405 0.00000
H748 H 0.62558 0.41231 0.23595 0.00000
C749 C 0.61303 0.58640 0.30867 0.00000
H750 H 0.63423 0.62654 0.31942 0.00000
C751 C 0.64651 0.54477 0.28834 0.00000
C752 C 0.60542 0.52589 0.28151 0.00000
H753 H 0.60192 0.47714 0.25983 0.00000
C754 C 0.63787 0.48708 0.26308 0.00000
C755 C 0.64679 0.45245 0.24670 0.00000
N756 N 0.63121 0.42223 0.25265 0.00000
C757 C 0.61330 0.49409 0.26703 0.00000
N758 N 0.62861 0.61662 0.30272 0.00000
C759 C 0.65440 0.51296 0.27386 0.00000
H760 H 0.64857 0.45586 0.22118 0.00000
H761 H 0.66282 0.44709 0.25631 0.00000
H762 H 0.61124 0.58299 0.33419 0.00000
H763 H 0.59699 0.59177 0.29907 0.00000
H764 H 0.52610 0.74307 0.32507 0.00000
H765 H 0.48794 0.72828 0.34573 0.00000
C766 C 0.52332 0.71914 0.27732 0.00000
H767 H 0.51206 0.69219 0.23381 0.00000
H768 H 0.42645 0.66898 0.28752 0.00000
C769 C 0.54835 0.72912 0.26319 0.00000
H770 H 0.57355 0.75149 0.29201 0.00000
C771 C 0.51566 0.72977 0.31071 0.00000
C772 C 0.50728 0.69953 0.25646 0.00000
H773 H 0.47390 0.67739 0.25447 0.00000
C774 C 0.47668 0.70133 0.30221 0.00000
C775 C 0.45165 0.69135 0.31635 0.00000
N776 N 0.43306 0.68761 0.28960 0.00000
C777 C 0.48434 0.69069 0.26882 0.00000
N778 N 0.56694 0.73285 0.28993 0.00000
C779 C 0.49272 0.72094 0.32307 0.00000
H780 H 0.45299 0.66898 0.32923 0.00000
H781 H 0.44649 0.70946 0.33323 0.00000
H782 H 0.54701 0.75148 0.25030 0.00000
H783 H 0.55351 0.71101 0.24631 0.00000
H784 H 0.36320 0.52783 0.31570 0.00000
H785 H 0.37770 0.47474 0.33777 0.00000
C786 C 0.36137 0.51303 0.26429 0.00000
H787 H 0.36249 0.48642 0.21760 0.00000
H788 H 0.39154 0.36980 0.27816 0.00000
C789 C 0.35150 0.54780 0.24944 0.00000
H790 H 0.34865 0.59137 0.27722 0.00000
C791 C 0.36598 0.50887 0.30021 0.00000
C792 C 0.36555 0.48420 0.24192 0.00000
H793 H 0.37699 0.43333 0.23967 0.00000
C794 C 0.37881 0.44813 0.29108 0.00000
C795 C 0.38868 0.41336 0.30593 0.00000
N796 N 0.38134 0.38197 0.28680 0.00000
C797 C 0.37421 0.45229 0.25516 0.00000
N798 N 0.35885 0.57919 0.26858 0.00000
C799 C 0.37463 0.47696 0.31346 0.00000
H800 H 0.40638 0.41450 0.30597 0.00000
H801 H 0.38337 0.41104 0.33051 0.00000
H802 H 0.33380 0.54665 0.24940 0.00000
H803 H 0.35681 0.55012 0.22486 0.00000
H804 H 0.61820 0.32113 0.44059 0.00000
H805 H 0.63047 0.33681 0.49705 0.00000
C806 C 0.62254 0.26823 0.44609 0.00000
H807 H 0.62935 0.21856 0.46411 0.00000
H808 H 0.65213 0.26400 0.59018 0.00000
C809 C 0.61418 0.25749 0.40904 0.00000
H810 H 0.60768 0.29137 0.37097 0.00000
C811 C 0.62294 0.30348 0.45660 0.00000
C812 C 0.62956 0.24251 0.47062 0.00000
H813 H 0.64162 0.23424 0.52057 0.00000
C814 C 0.63728 0.28714 0.51507 0.00000
C815 C 0.64564 0.29788 0.55212 0.00000
N816 N 0.64095 0.27199 0.57949 0.00000
C817 C 0.63688 0.25189 0.50456 0.00000
N818 N 0.61886 0.28339 0.38166 0.00000
C819 C 0.63026 0.31286 0.49053 0.00000
H820 H 0.66306 0.30252 0.55139 0.00000
H821 H 0.63757 0.31999 0.55860 0.00000
H822 H 0.59676 0.25285 0.40976 0.00000
H823 H 0.62225 0.23538 0.40255 0.00000
H824 H 0.15329 0.97356 0.80022 0.00000
H825 H 0.14937 0.02581 0.83170 0.00000
C826 C 0.13224 0.98747 0.75865 0.00000
H827 H 0.11044 0.01304 0.72367 0.00000
H828 H 0.10916 0.12829 0.79971 0.00000
C829 C 0.13493 0.95328 0.73738 0.00000
H830 H 0.15065 0.91056 0.75566 0.00000
C831 C 0.14380 0.99195 0.79101 0.00000
C832 C 0.11834 0.01547 0.74551 0.00000
H833 H 0.10652 0.06529 0.75515 0.00000
C834 C 0.12758 0.05138 0.79673 0.00000
C835 C 0.12489 0.08557 0.81800 0.00000
N836 N 0.12126 0.11713 0.79695 0.00000
C837 C 0.11601 0.04689 0.76436 0.00000
N838 N 0.13855 0.92172 0.75843 0.00000
C839 C 0.14148 0.02337 0.80986 0.00000
H840 H 0.11114 0.08300 0.83411 0.00000
H841 H 0.13942 0.08880 0.83243 0.00000
H842 H 0.14867 0.95585 0.72126 0.00000
H843 H 0.12039 0.95005 0.72295 0.00000
H844 H 0.02817 0.25453 0.77866 0.00000
H845 H 0.98864 0.26924 0.79291 0.00000
C846 C 0.02414 0.20135 0.78125 0.00000
H847 H 0.01136 0.15122 0.78663 0.00000
H848 H 0.92346 0.19491 0.81239 0.00000
C849 C 0.05010 0.19127 0.77142 0.00000
H850 H 0.07655 0.22555 0.76715 0.00000
C851 C 0.01689 0.23653 0.78316 0.00000
C852 C 0.00686 0.17512 0.78789 0.00000
H853 H 0.97183 0.16593 0.80088 0.00000
C854 C 0.97586 0.21911 0.79828 0.00000
C855 C 0.94990 0.22919 0.80811 0.00000
N856 N 0.93164 0.20385 0.79749 0.00000
C857 C 0.98311 0.18393 0.79637 0.00000
N858 N 0.06836 0.21661 0.78204 0.00000
C859 C 0.99314 0.24534 0.79165 0.00000
H860 H 0.94899 0.23225 0.83378 0.00000
H861 H 0.94610 0.25200 0.79723 0.00000
H862 H 0.05101 0.18822 0.74576 0.00000
H863 H 0.05390 0.16846 0.78231 0.00000
loop_
_geom_bond_atom_site_label_1
_geom_bond_atom_site_label_2
_geom_bond_distance
_geom_bond_site_symmetry_2
_ccdc_geom_bond_type
C0 O4 1.244 . A
C0 O5 1.271 . A
C1 O8 1.260 . A
C1 O9 1.250 . A
Zn2 O4 1.944 . S
Zn2 O10 1.923 . S
Zn2 O12 1.922 . S
C3 O12 1.272 . A
C3 O13 1.231 . A
O5 Zn6 1.976 . S
Zn6 O8 2.029 . S
Zn6 O9 2.228 . S
Zn6 O11 1.972 . S
Zn6 O13 1.948 . S
C7 O10 1.252 . A
C7 O11 1.230 . A
C14 O18 1.244 . A
C14 O19 1.271 . A
C15 O22 1.260 . A
C15 O23 1.250 . A
Zn16 O18 1.944 . S
Zn16 O24 1.923 . S
Zn16 O26 1.922 . S
C17 O26 1.272 . A
C17 O27 1.231 . A
O19 Zn20 1.976 . S
Zn20 O22 2.029 . S
Zn20 O23 2.228 . S
Zn20 O25 1.972 . S
Zn20 O27 1.948 . S
C21 O24 1.252 . A
C21 O25 1.230 . A
C28 O32 1.244 . A
C28 O33 1.271 . A
C29 O36 1.260 . A
C29 O37 1.250 . A
Zn30 O32 1.944 . S
Zn30 O38 1.923 . S
Zn30 O40 1.922 . S
C31 O40 1.272 . A
C31 O41 1.231 . A
O33 Zn34 1.976 . S
Zn34 O36 2.029 . S
Zn34 O37 2.228 . S
Zn34 O39 1.972 . S
Zn34 O41 1.948 . S
C35 O38 1.252 . A
C35 O39 1.230 . A
C42 O46 1.244 . A
C42 O47 1.271 . A
C43 O50 1.260 . A
C43 O51 1.250 . A
Zn44 O46 1.944 . S
Zn44 O52 1.923 . S
Zn44 O54 1.922 . S
C45 O54 1.272 . A
C45 O55 1.231 . A
O47 Zn48 1.976 . S
Zn48 O50 2.029 . S
Zn48 O51 2.228 . S
Zn48 O53 1.972 . S
Zn48 O55 1.948 . S
C49 O52 1.252 . A
C49 O53 1.230 . A
C56 O60 1.244 . A
C56 O61 1.271 . A
C57 O64 1.260 . A
C57 O65 1.250 . A
Zn58 O60 1.944 . S
Zn58 O66 1.923 . S
Zn58 O68 1.922 . S
C59 O68 1.272 . A
C59 O69 1.231 . A
O61 Zn62 1.976 . S
Zn62 O64 2.029 . S
Zn62 O65 2.228 . S
Zn62 O67 1.972 . S
Zn62 O69 1.948 . S
C63 O66 1.252 . A
C63 O67 1.230 . A
C70 O74 1.244 . A
C70 O75 1.271 . A
C71 O78 1.260 . A
C71 O79 1.250 . A
Zn72 O74 1.944 . S
Zn72 O80 1.923 . S
Zn72 O82 1.922 . S
C73 O82 1.272 . A
C73 O83 1.231 . A
O75 Zn76 1.976 . S
Zn76 O78 2.029 . S
Zn76 O79 2.228 . S
Zn76 O81 1.972 . S
Zn76 O83 1.948 . S
C77 O80 1.252 . A
C77 O81 1.230 . A
C84 O88 1.244 . A
C84 O89 1.271 . A
C85 O92 1.260 . A
C85 O93 1.250 . A
Zn86 O88 1.944 . S
Zn86 O94 1.923 . S
Zn86 O96 1.922 . S
C87 O96 1.272 . A
C87 O97 1.231 . A
O89 Zn90 1.976 . S
Zn90 O92 2.029 . S
Zn90 O93 2.228 . S
Zn90 O95 1.972 . S
Zn90 O97 1.948 . S
C91 O94 1.252 . A
C91 O95 1.230 . A
C98 O102 1.244 . A
C98 O103 1.271 . A
C99 O106 1.260 . A
C99 O107 1.250 . A
Zn100 O102 1.944 . S
Zn100 O108 1.923 . S
Zn100 O110 1.922 . S
C101 O110 1.272 . A
C101 O111 1.231 . A
O103 Zn104 1.976 . S
Zn104 O106 2.029 . S
Zn104 O107 2.228 . S
Zn104 O109 1.972 . S
Zn104 O111 1.948 . S
C105 O108 1.252 . A
C105 O109 1.230 . A
C112 O116 1.244 . A
C112 O117 1.271 . A
C113 O120 1.260 . A
C113 O121 1.250 . A
Zn114 O116 1.944 . S
Zn114 O122 1.923 . S
Zn114 O124 1.922 . S
C115 O124 1.272 . A
C115 O125 1.231 . A
O117 Zn118 1.976 . S
Zn118 O120 2.029 . S
Zn118 O121 2.228 . S
Zn118 O123 1.972 . S
Zn118 O125 1.948 . S
C119 O122 1.252 . A
C119 O123 1.230 . A
C126 O130 1.244 . A
C126 O131 1.271 . A
C127 O134 1.260 . A
C127 O135 1.250 . A
Zn128 O130 1.944 . S
Zn128 O136 1.923 . S
Zn128 O138 1.922 . S
C129 O138 1.272 . A
C129 O139 1.231 . A
O131 Zn132 1.976 . S
Zn132 O134 2.029 . S
Zn132 O135 2.228 . S
Zn132 O137 1.972 . S
Zn132 O139 1.948 . S
C133 O136 1.252 . A
C133 O137 1.230 . A
C140 O144 1.244 . A
C140 O145 1.271 . A
C141 O148 1.260 . A
C141 O149 1.250 . A
Zn142 O144 1.944 . S
Zn142 O150 1.923 . S
Zn142 O152 1.922 . S
C143 O152 1.272 . A
C143 O153 1.231 . A
O145 Zn146 1.976 . S
Zn146 O148 2.029 . S
Zn146 O149 2.228 . S
Zn146 O151 1.972 . S
Zn146 O153 1.948 . S
C147 O150 1.252 . A
C147 O151 1.230 . A
C154 O158 1.244 . A
C154 O159 1.271 . A
C155 O162 1.260 . A
C155 O163 1.250 . A
Zn156 O158 1.944 . S
Zn156 O164 1.923 . S
Zn156 O166 1.922 . S
C157 O166 1.272 . A
C157 O167 1.231 . A
O159 Zn160 1.976 . S
Zn160 O162 2.029 . S
Zn160 O163 2.228 . S
Zn160 O165 1.972 . S
Zn160 O167 1.948 . S
C161 O164 1.252 . A
C161 O165 1.230 . A
C168 O172 1.244 . A
C168 O173 1.271 . A
C169 O176 1.260 . A
C169 O177 1.250 . A
Zn170 O172 1.944 . S
Zn170 O178 1.923 . S
Zn170 O180 1.922 . S
C171 O180 1.272 . A
C171 O181 1.231 . A
O173 Zn174 1.976 . S
Zn174 O176 2.029 . S
Zn174 O177 2.228 . S
Zn174 O179 1.972 . S
Zn174 O181 1.948 . S
C175 O178 1.252 . A
C175 O179 1.230 . A
C182 O186 1.244 . A
C182 O187 1.271 . A
C183 O190 1.260 . A
C183 O191 1.250 . A
Zn184 O186 1.944 . S
Zn184 O192 1.923 . S
Zn184 O194 1.922 . S
C185 O194 1.272 . A
C185 O195 1.231 . A
O187 Zn188 1.976 . S
Zn188 O190 2.029 . S
Zn188 O191 2.228 . S
Zn188 O193 1.972 . S
Zn188 O195 1.948 . S
C189 O192 1.252 . A
C189 O193 1.230 . A
C196 O200 1.244 . A
C196 O201 1.271 . A
C197 O204 1.260 . A
C197 O205 1.250 . A
Zn198 O200 1.944 . S
Zn198 O206 1.923 . S
Zn198 O208 1.922 . S
C199 O208 1.272 . A
C199 O209 1.231 . A
O201 Zn202 1.976 . S
Zn202 O204 2.029 . S
Zn202 O205 2.228 . S
Zn202 O207 1.972 . S
Zn202 O209 1.948 . S
C203 O206 1.252 . A
C203 O207 1.230 . A
C210 O214 1.244 . A
C210 O215 1.271 . A
C211 O218 1.260 . A
C211 O219 1.250 . A
Zn212 O214 1.944 . S
Zn212 O220 1.923 . S
Zn212 O222 1.922 . S
C213 O222 1.272 . A
C213 O223 1.231 . A
O215 Zn216 1.976 . S
Zn216 O218 2.029 . S
Zn216 O219 2.228 . S
Zn216 O221 1.972 . S
Zn216 O223 1.948 . S
C217 O220 1.252 . A
C217 O221 1.230 . A
H224 C231 0.930 . S
H225 C239 0.930 . S
C226 C229 1.516 . S
C226 C231 1.379 . A
C226 C232 1.387 . A
H227 C232 0.930 . S
H228 N236 0.790 . S
C229 N238 1.435 . S
C229 H242 0.970 . S
C229 H243 0.970 . S
H230 N238 0.791 . S
C231 C239 1.379 . A
C232 C237 1.379 . A
H233 C237 0.930 . S
C234 C235 1.516 . S
C234 C237 1.379 . A
C234 C239 1.387 . A
C235 N236 1.435 . S
C235 H240 0.970 . S
C235 H241 0.970 . S
H244 C251 0.930 . S
H245 C259 0.930 . S
C246 C249 1.516 . S
C246 C251 1.379 . A
C246 C252 1.387 . A
H247 C252 0.930 . S
H248 N256 0.790 . S
C249 N258 1.435 . S
C249 H262 0.970 . S
C249 H263 0.970 . S
H250 N258 0.791 . S
C251 C259 1.379 . A
C252 C257 1.379 . A
H253 C257 0.930 . S
C254 C255 1.516 . S
C254 C257 1.379 . A
C254 C259 1.387 . A
C255 N256 1.435 . S
C255 H260 0.970 . S
C255 H261 0.970 . S
H264 C271 0.930 . S
H265 C279 0.930 . S
C266 C269 1.516 . S
C266 C271 1.379 . A
C266 C272 1.387 . A
H267 C272 0.930 . S
H268 N276 0.790 . S
C269 N278 1.435 . S
C269 H282 0.970 . S
C269 H283 0.970 . S
H270 N278 0.791 . S
C271 C279 1.379 . A
C272 C277 1.379 . A
H273 C277 0.930 . S
C274 C275 1.516 . S
C274 C277 1.379 . A
C274 C279 1.387 . A
C275 N276 1.435 . S
C275 H280 0.970 . S
C275 H281 0.970 . S
H284 C291 0.930 . S
H285 C299 0.930 . S
C286 C289 1.516 . S
C286 C291 1.379 . A
C286 C292 1.387 . A
H287 C292 0.930 . S
H288 N296 0.790 . S
C289 N298 1.435 . S
C289 H302 0.970 . S
C289 H303 0.970 . S
H290 N298 0.791 . S
C291 C299 1.379 . A
C292 C297 1.379 . A
H293 C297 0.930 . S
C294 C295 1.516 . S
C294 C297 1.379 . A
C294 C299 1.387 . A
C295 N296 1.435 . S
C295 H300 0.970 . S
C295 H301 0.970 . S
H304 C311 0.930 . S
H305 C319 0.930 . S
C306 C309 1.516 . S
C306 C311 1.379 . A
C306 C312 1.387 . A
H307 C312 0.930 . S
H308 N316 0.790 . S
C309 N318 1.435 . S
C309 H322 0.970 . S
C309 H323 0.970 . S
H310 N318 0.791 . S
C311 C319 1.379 . A
C312 C317 1.379 . A
H313 C317 0.930 . S
C314 C315 1.516 . S
C314 C317 1.379 . A
C314 C319 1.387 . A
C315 N316 1.435 . S
C315 H320 0.970 . S
C315 H321 0.970 . S
H324 C331 0.930 . S
H325 C339 0.930 . S
C326 C329 1.516 . S
C326 C331 1.379 . A
C326 C332 1.387 . A
H327 C332 0.930 . S
H328 N336 0.790 . S
C329 N338 1.435 . S
C329 H342 0.970 . S
C329 H343 0.970 . S
H330 N338 0.791 . S
C331 C339 1.379 . A
C332 C337 1.379 . A
H333 C337 0.930 . S
C334 C335 1.516 . S
C334 C337 1.379 . A
C334 C339 1.387 . A
C335 N336 1.435 . S
C335 H340 0.970 . S
C335 H341 0.970 . S
H344 C351 0.930 . S
H345 C359 0.930 . S
C346 C349 1.516 . S
C346 C351 1.379 . A
C346 C352 1.387 . A
H347 C352 0.930 . S
H348 N356 0.790 . S
C349 N358 1.435 . S
C349 H362 0.970 . S
C349 H363 0.970 . S
H350 N358 0.791 . S
C351 C359 1.379 . A
C352 C357 1.379 . A
H353 C357 0.930 . S
C354 C355 1.516 . S
C354 C357 1.379 . A
C354 C359 1.387 . A
C355 N356 1.435 . S
C355 H360 0.970 . S
C355 H361 0.970 . S
H364 C371 0.930 . S
H365 C379 0.930 . S
C366 C369 1.516 . S
C366 C371 1.379 . A
C366 C372 1.387 . A
H367 C372 0.930 . S
H368 N376 0.790 . S
C369 N378 1.435 . S
C369 H382 0.970 . S
C369 H383 0.970 . S
H370 N378 0.791 . S
C371 C379 1.379 . A
C372 C377 1.379 . A
H373 C377 0.930 . S
C374 C375 1.516 . S
C374 C377 1.379 . A
C374 C379 1.387 . A
C375 N376 1.435 . S
C375 H380 0.970 . S
C375 H381 0.970 . S
H384 C391 0.930 . S
H385 C399 0.930 . S
C386 C389 1.516 . S
C386 C391 1.379 . A
C386 C392 1.387 . A
H387 C392 0.930 . S
H388 N396 0.790 . S
C389 N398 1.435 . S
C389 H402 0.970 . S
C389 H403 0.970 . S
H390 N398 0.791 . S
C391 C399 1.379 . A
C392 C397 1.379 1_565 A
H393 C397 0.930 . S
C394 C395 1.516 . S
C394 C397 1.379 . A
C394 C399 1.387 1_545 A
C395 N396 1.435 . S
C395 H400 0.970 . S
C395 H401 0.970 . S
H404 C411 0.930 . S
H405 C419 0.930 . S
C406 C409 1.516 . S
C406 C411 1.379 . A
C406 C412 1.387 . A
H407 C412 0.930 . S
H408 N416 0.790 . S
C409 N418 1.435 . S
C409 H422 0.970 . S
C409 H423 0.970 . S
H410 N418 0.791 . S
C411 C419 1.379 1_655 A
C412 C417 1.379 1_655 A
H413 C417 0.930 . S
C414 C415 1.516 . S
C414 C417 1.379 . A
C414 C419 1.387 . A
C415 N416 1.435 . S
C415 H420 0.970 . S
C415 H421 0.970 . S
H424 C431 0.930 . S
H425 C439 0.930 . S
C426 C429 1.516 . S
C426 C431 1.379 . A
C426 C432 1.387 . A
H427 C432 0.930 . S
H428 N436 0.790 . S
C429 N438 1.435 . S
C429 H442 0.970 . S
C429 H443 0.970 . S
H430 N438 0.791 . S
C431 C439 1.379 . A
C432 C437 1.379 1_545 A
H433 C437 0.930 . S
C434 C435 1.516 . S
C434 C437 1.379 . A
C434 C439 1.387 1_565 A
C435 N436 1.435 . S
C435 H440 0.970 . S
C435 H441 0.970 . S
H444 C451 0.930 . S
H445 C459 0.930 . S
C446 C449 1.516 . S
C446 C451 1.379 . A
C446 C452 1.387 . A
H447 C452 0.930 . S
H448 N456 0.790 . S
C449 N458 1.435 . S
C449 H462 0.970 . S
C449 H463 0.970 . S
H450 N458 0.791 . S
C451 C459 1.379 1_455 A
C452 C457 1.379 1_455 A
H453 C457 0.930 . S
C454 C455 1.516 . S
C454 C457 1.379 . A
C454 C459 1.387 . A
C455 N456 1.435 . S
C455 H460 0.970 . S
C455 H461 0.970 . S
H464 C471 0.930 . S
H465 C479 0.930 . S
C466 C469 1.516 . S
C466 C471 1.379 . A
C466 C472 1.387 . A
H467 C472 0.930 . S
H468 N476 0.790 . S
C469 N478 1.435 . S
C469 H482 0.970 . S
C469 H483 0.970 . S
H470 N478 0.791 . S
C471 C479 1.379 . A
C472 C477 1.379 1_565 A
H473 C477 0.930 . S
C474 C475 1.516 . S
C474 C477 1.379 . A
C474 C479 1.387 1_545 A
C475 N476 1.435 . S
C475 H480 0.970 . S
C475 H481 0.970 . S
H484 C491 0.930 . S
H485 C499 0.930 . S
C486 C489 1.516 . S
C486 C491 1.379 . A
C486 C492 1.387 . A
H487 C492 0.930 . S
H488 N496 0.790 . S
C489 N498 1.435 . S
C489 H502 0.970 . S
C489 H503 0.970 . S
H490 N498 0.791 . S
C491 C499 1.379 1_455 A
C492 C497 1.379 1_455 A
H493 C497 0.930 . S
C494 C495 1.516 . S
C494 C497 1.379 . A
C494 C499 1.387 . A
C495 N496 1.435 . S
C495 H500 0.970 . S
C495 H501 0.970 . S
H504 C511 0.930 . S
H505 C519 0.930 . S
C506 C509 1.516 . S
C506 C511 1.379 . A
C506 C512 1.387 1_554 A
H507 C512 0.930 . S
H508 N516 0.790 . S
C509 N518 1.435 . S
C509 H522 0.970 . S
C509 H523 0.970 . S
H510 N518 0.791 . S
C511 C519 1.379 1_554 A
C512 C517 1.379 . A
H513 C517 0.930 . S
C514 C515 1.516 . S
C514 C517 1.379 . A
C514 C519 1.387 . A
C515 N516 1.435 . S
C515 H520 0.970 . S
C515 H521 0.970 . S
H524 C531 0.930 . S
H525 C539 0.930 . S
C526 C529 1.516 . S
C526 C531 1.379 . A
C526 C532 1.387 . A
H527 C532 0.930 . S
H528 N536 0.790 . S
C529 N538 1.435 . S
C529 H542 0.970 . S
C529 H543 0.970 . S
H530 N538 0.791 . S
C531 C539 1.379 . A
C532 C537 1.379 1_556 A
H533 C537 0.930 . S
C534 C535 1.516 . S
C534 C537 1.379 . A
C534 C539 1.387 1_554 A
C535 N536 1.435 . S
C535 H540 0.970 . S
C535 H541 0.970 . S
H544 C551 0.930 . S
H545 C559 0.930 . S
C546 C549 1.516 . S
C546 C551 1.379 . A
C546 C552 1.387 . A
H547 C552 0.930 . S
H548 N556 0.790 . S
C549 N558 1.435 . S
C549 H562 0.970 . S
C549 H563 0.970 . S
H550 N558 0.791 . S
C551 C559 1.379 . A
C552 C557 1.379 1_554 A
H553 C557 0.930 . S
C554 C555 1.516 . S
C554 C557 1.379 . A
C554 C559 1.387 1_556 A
C555 N556 1.435 . S
C555 H560 0.970 . S
C555 H561 0.970 . S
H564 C571 0.930 . S
H565 C579 0.930 . S
C566 C569 1.516 . S
C566 C571 1.379 . A
C566 C572 1.387 . A
H567 C572 0.930 . S
H568 N576 0.790 . S
C569 N578 1.435 . S
C569 H582 0.970 . S
C569 H583 0.970 . S
H570 N578 0.791 . S
C571 C579 1.379 . A
C572 C577 1.379 1_554 A
H573 C577 0.930 . S
C574 C575 1.516 . S
C574 C577 1.379 . A
C574 C579 1.387 1_556 A
C575 N576 1.435 . S
C575 H580 0.970 . S
C575 H581 0.970 . S
H584 C591 0.930 . S
H585 C599 0.930 . S
C586 C589 1.516 . S
C586 C591 1.379 . A
C586 C592 1.387 . A
H587 C592 0.930 . S
H588 N596 0.790 . S
C589 N598 1.435 . S
C589 H602 0.970 . S
C589 H603 0.970 . S
H590 N598 0.791 . S
C591 C599 1.379 . A
C592 C597 1.379 . A
H593 C597 0.930 . S
C594 C595 1.516 . S
C594 C597 1.379 . A
C594 C599 1.387 . A
C595 N596 1.435 . S
C595 H600 0.970 . S
C595 H601 0.970 . S
H604 C611 0.930 . S
H605 C619 0.930 . S
C606 C609 1.516 . S
C606 C611 1.379 . A
C606 C612 1.387 . A
H607 C612 0.930 . S
H608 N616 0.790 . S
C609 N618 1.435 . S
C609 H622 0.970 . S
C609 H623 0.970 . S
H610 N618 0.791 . S
C611 C619 1.379 . A
C612 C617 1.379 . A
H613 C617 0.930 . S
C614 C615 1.516 . S
C614 C617 1.379 . A
C614 C619 1.387 . A
C615 N616 1.435 . S
C615 H620 0.970 . S
C615 H621 0.970 . S
H624 C631 0.930 . S
H625 C639 0.930 . S
C626 C629 1.516 . S
C626 C631 1.379 . A
C626 C632 1.387 . A
H627 C632 0.930 . S
H628 N636 0.790 . S
C629 N638 1.435 . S
C629 H642 0.970 . S
C629 H643 0.970 . S
H630 N638 0.791 . S
C631 C639 1.379 . A
C632 C637 1.379 . A
H633 C637 0.930 . S
C634 C635 1.516 . S
C634 C637 1.379 . A
C634 C639 1.387 . A
C635 N636 1.435 . S
C635 H640 0.970 . S
C635 H641 0.970 . S
H644 C651 0.930 . S
H645 C659 0.930 . S
C646 C649 1.516 . S
C646 C651 1.379 . A
C646 C652 1.387 . A
H647 C652 0.930 . S
H648 N656 0.790 . S
C649 N658 1.435 . S
C649 H662 0.970 . S
C649 H663 0.970 . S
H650 N658 0.791 . S
C651 C659 1.379 . A
C652 C657 1.379 . A
H653 C657 0.930 . S
C654 C655 1.516 . S
C654 C657 1.379 . A
C654 C659 1.387 . A
C655 N656 1.435 . S
C655 H660 0.970 . S
C655 H661 0.970 . S
H664 C671 0.930 . S
H665 C679 0.930 . S
C666 C669 1.516 . S
C666 C671 1.379 . A
C666 C672 1.387 . A
H667 C672 0.930 . S
H668 N676 0.790 . S
C669 N678 1.435 . S
C669 H682 0.970 . S
C669 H683 0.970 . S
H670 N678 0.791 . S
C671 C679 1.379 . A
C672 C677 1.379 . A
H673 C677 0.930 . S
C674 C675 1.516 . S
C674 C677 1.379 . A
C674 C679 1.387 . A
C675 N676 1.435 . S
C675 H680 0.970 . S
C675 H681 0.970 . S
H684 C691 0.930 . S
H685 C699 0.930 . S
C686 C689 1.516 . S
C686 C691 1.379 . A
C686 C692 1.387 . A
H687 C692 0.930 . S
H688 N696 0.790 . S
C689 N698 1.435 . S
C689 H702 0.970 . S
C689 H703 0.970 . S
H690 N698 0.791 . S
C691 C699 1.379 . A
C692 C697 1.379 . A
H693 C697 0.930 . S
C694 C695 1.516 . S
C694 C697 1.379 . A
C694 C699 1.387 . A
C695 N696 1.435 . S
C695 H700 0.970 . S
C695 H701 0.970 . S
H704 C711 0.930 . S
H705 C719 0.930 . S
C706 C709 1.516 . S
C706 C711 1.379 . A
C706 C712 1.387 . A
H707 C712 0.930 . S
H708 N716 0.790 . S
C709 N718 1.435 . S
C709 H722 0.970 . S
C709 H723 0.970 . S
H710 N718 0.791 . S
C711 C719 1.379 . A
C712 C717 1.379 . A
H713 C717 0.930 . S
C714 C715 1.516 . S
C714 C717 1.379 . A
C714 C719 1.387 . A
C715 N716 1.435 . S
C715 H720 0.970 . S
C715 H721 0.970 . S
H724 C731 0.930 . S
H725 C739 0.930 . S
C726 C729 1.516 . S
C726 C731 1.379 . A
C726 C732 1.387 . A
H727 C732 0.930 . S
H728 N736 0.790 . S
C729 N738 1.435 . S
C729 H742 0.970 . S
C729 H743 0.970 . S
H730 N738 0.791 . S
C731 C739 1.379 . A
C732 C737 1.379 . A
H733 C737 0.930 . S
C734 C735 1.516 . S
C734 C737 1.379 . A
C734 C739 1.387 . A
C735 N736 1.435 . S
C735 H740 0.970 . S
C735 H741 0.970 . S
H744 C751 0.930 . S
H745 C759 0.930 . S
C746 C749 1.516 . S
C746 C751 1.379 . A
C746 C752 1.387 . A
H747 C752 0.930 . S
H748 N756 0.790 . S
C749 N758 1.435 . S
C749 H762 0.970 . S
C749 H763 0.970 . S
H750 N758 0.791 . S
C751 C759 1.379 . A
C752 C757 1.379 . A
H753 C757 0.930 . S
C754 C755 1.516 . S
C754 C757 1.379 . A
C754 C759 1.387 . A
C755 N756 1.435 . S
C755 H760 0.970 . S
C755 H761 0.970 . S
H764 C771 0.930 . S
H765 C779 0.930 . S
C766 C769 1.516 . S
C766 C771 1.379 . A
C766 C772 1.387 . A
H767 C772 0.930 . S
H768 N776 0.790 . S
C769 N778 1.435 . S
C769 H782 0.970 . S
C769 H783 0.970 . S
H770 N778 0.791 . S
C771 C779 1.379 . A
C772 C777 1.379 . A
H773 C777 0.930 . S
C774 C775 1.516 . S
C774 C777 1.379 . A
C774 C779 1.387 . A
C775 N776 1.435 . S
C775 H780 0.970 . S
C775 H781 0.970 . S
H784 C791 0.930 . S
H785 C799 0.930 . S
C786 C789 1.516 . S
C786 C791 1.379 . A
C786 C792 1.387 . A
H787 C792 0.930 . S
H788 N796 0.790 . S
C789 N798 1.435 . S
C789 H802 0.970 . S
C789 H803 0.970 . S
H790 N798 0.791 . S
C791 C799 1.379 . A
C792 C797 1.379 . A
H793 C797 0.930 . S
C794 C795 1.516 . S
C794 C797 1.379 . A
C794 C799 1.387 . A
C795 N796 1.435 . S
C795 H800 0.970 . S
C795 H801 0.970 . S
H804 C811 0.930 . S
H805 C819 0.930 . S
C806 C809 1.516 . S
C806 C811 1.379 . A
C806 C812 1.387 . A
H807 C812 0.930 . S
H808 N816 0.790 . S
C809 N818 1.435 . S
C809 H822 0.970 . S
C809 H823 0.970 . S
H810 N818 0.791 . S
C811 C819 1.379 . A
C812 C817 1.379 . A
H813 C817 0.930 . S
C814 C815 1.516 . S
C814 C817 1.379 . A
C814 C819 1.387 . A
C815 N816 1.435 . S
C815 H820 0.970 . S
C815 H821 0.970 . S
H824 C831 0.930 . S
H825 C839 0.930 . S
C826 C829 1.516 . S
C826 C831 1.379 . A
C826 C832 1.387 1_565 A
H827 C832 0.930 . S
H828 N836 0.790 . S
C829 N838 1.435 . S
C829 H842 0.970 . S
C829 H843 0.970 . S
H830 N838 0.791 . S
C831 C839 1.379 1_565 A
C832 C837 1.379 . A
H833 C837 0.930 . S
C834 C835 1.516 . S
C834 C837 1.379 . A
C834 C839 1.387 . A
C835 N836 1.435 . S
C835 H840 0.970 . S
C835 H841 0.970 . S
H844 C851 0.930 . S
H845 C859 0.930 . S
C846 C849 1.516 . S
C846 C851 1.379 . A
C846 C852 1.387 . A
H847 C852 0.930 . S
H848 N856 0.790 . S
C849 N858 1.435 . S
C849 H862 0.970 . S
C849 H863 0.970 . S
H850 N858 0.791 . S
C851 C859 1.379 1_455 A
C852 C857 1.379 1_455 A
H853 C857 0.930 . S
C854 C855 1.516 . S
C854 C857 1.379 . A
C854 C859 1.387 . A
C855 N856 1.435 . S
C855 H860 0.970 . S
C855 H861 0.970 . S
N236 C197 1.015 . S
N238 C1 0.807 . S
N256 C211 0.902 . S
N258 C15 1.152 . S
N276 C29 0.840 . S
N278 C113 1.102 . S
N296 C43 1.050 . S
N298 C127 1.176 . S
N316 C141 0.865 . S
N318 C57 0.878 . S
N336 C71 1.121 . S
N338 C155 1.143 . S
N356 C169 1.175 . S
N358 C85 0.965 . S
N376 C99 1.150 . S
N378 C183 1.111 . S
N396 C3 1.242 . S
N398 C77 1.273 . S
N416 C56 1.237 . S
N418 C14 0.759 . S
N436 C31 1.271 . S
N438 C21 1.235 . S
N456 C28 0.993 . S
N458 C42 1.106 . S
N476 C59 1.331 . S
N478 C49 1.153 . S
N496 C70 1.239 . S
N498 C84 0.743 . S
N516 C91 1.365 . S
N518 C45 1.169 . S
N536 C17 1.234 . S
N538 C7 1.282 . S
N556 C73 1.207 . S
N558 C35 1.317 . S
N576 C101 1.134 . S
N578 C63 1.475 . S
N596 C161 1.399 . S
N598 C115 1.142 . S
N616 C133 1.065 . S
N618 C171 1.448 . S
N636 C143 1.116 . S
N638 C189 1.488 . S
N656 C154 0.789 . S
N658 C168 1.156 . S
N676 C175 1.214 . S
N678 C185 1.367 . S
N696 C182 1.194 . S
N698 C196 0.751 . S
N716 C157 1.334 . S
N718 C203 1.148 . S
N736 C210 1.033 . S
N738 C140 0.922 . S
N756 C213 1.476 . S
N758 C119 0.959 . S
N776 C126 0.729 . S
N778 C112 1.222 . S
N796 C147 1.215 . S
N798 C129 1.367 . S
N816 C199 1.327 . S
N818 C217 1.272 . S
N836 C105 1.041 . S
N838 C87 1.459 . S
N856 C0 0.888 . S
N858 C98 1.180 . S
